<routes>
    <vType accel="1.0" decel="5.0" id="Car" jmIgnoreKeepClearTime="100.0" maxSpeed="30" length="3" vClass="passenger"/>
        
    <!--emergencyDecel="0.0"-->
    <route id="route12" edges="Road1 Road2_out"/> <!-- Geradeaus-->
    <route id="route13" edges="Road1 Road3_out"/>
    <route id="route14" edges="Road1 Road4_out"/>

    <route id="route21" edges="Road2 Road1_out"/> <!-- Geradeaus-->
    <route id="route23" edges="Road2 Road3_out"/>
    <route id="route24" edges="Road2 Road4_out"/> 

    <route id="route31" edges="Road3 Road1_out"/> 
    <route id="route32" edges="Road3 Road2_out"/> 
    <route id="route34" edges="Road3 Road4_out"/> <!-- Geradeaus-->

    <route id="route41" edges="Road4 Road1_out"/>
    <route id="route42" edges="Road4 Road2_out"/>
    <route id="route43" edges="Road4 Road3_out"/> <!-- Geradeaus-->



    <vehicle depart ="2" id="car0" route="route34" type="Car"/>
<vehicle depart ="4" id="car1" route="route21" type="Car"/>
<vehicle depart ="4" id="car2" route="route21" type="Car"/>
<vehicle depart ="5" id="car3" route="route43" type="Car"/>
<vehicle depart ="5" id="car4" route="route34" type="Car"/>
<vehicle depart ="8" id="car5" route="route12" type="Car"/>
<vehicle depart ="9" id="car6" route="route12" type="Car"/>
<vehicle depart ="12" id="car7" route="route43" type="Car"/>
<vehicle depart ="12" id="car8" route="route43" type="Car"/>
<vehicle depart ="12" id="car9" route="route12" type="Car"/>
<vehicle depart ="15" id="car10" route="route21" type="Car"/>
<vehicle depart ="15" id="car11" route="route21" type="Car"/>
<vehicle depart ="19" id="car12" route="route12" type="Car"/>
<vehicle depart ="20" id="car13" route="route21" type="Car"/>
<vehicle depart ="20" id="car14" route="route21" type="Car"/>
<vehicle depart ="22" id="car15" route="route12" type="Car"/>
<vehicle depart ="22" id="car16" route="route34" type="Car"/>
<vehicle depart ="24" id="car17" route="route12" type="Car"/>
<vehicle depart ="25" id="car18" route="route34" type="Car"/>
<vehicle depart ="25" id="car19" route="route43" type="Car"/>
<vehicle depart ="26" id="car20" route="route21" type="Car"/>
<vehicle depart ="27" id="car21" route="route43" type="Car"/>
<vehicle depart ="27" id="car22" route="route12" type="Car"/>
<vehicle depart ="28" id="car23" route="route43" type="Car"/>
<vehicle depart ="29" id="car24" route="route21" type="Car"/>
<vehicle depart ="30" id="car25" route="route12" type="Car"/>
<vehicle depart ="31" id="car26" route="route12" type="Car"/>
<vehicle depart ="31" id="car27" route="route43" type="Car"/>
<vehicle depart ="33" id="car28" route="route21" type="Car"/>
<vehicle depart ="34" id="car29" route="route21" type="Car"/>
<vehicle depart ="35" id="car30" route="route34" type="Car"/>
<vehicle depart ="36" id="car31" route="route12" type="Car"/>
<vehicle depart ="37" id="car32" route="route43" type="Car"/>
<vehicle depart ="37" id="car33" route="route43" type="Car"/>
<vehicle depart ="40" id="car34" route="route34" type="Car"/>
<vehicle depart ="42" id="car35" route="route34" type="Car"/>
<vehicle depart ="45" id="car36" route="route43" type="Car"/>
<vehicle depart ="45" id="car37" route="route21" type="Car"/>
<vehicle depart ="45" id="car38" route="route12" type="Car"/>
<vehicle depart ="46" id="car39" route="route34" type="Car"/>
<vehicle depart ="46" id="car40" route="route43" type="Car"/>
<vehicle depart ="48" id="car41" route="route12" type="Car"/>
<vehicle depart ="50" id="car42" route="route21" type="Car"/>
<vehicle depart ="51" id="car43" route="route12" type="Car"/>
<vehicle depart ="51" id="car44" route="route43" type="Car"/>
<vehicle depart ="53" id="car45" route="route12" type="Car"/>
<vehicle depart ="54" id="car46" route="route43" type="Car"/>
<vehicle depart ="56" id="car47" route="route21" type="Car"/>
<vehicle depart ="56" id="car48" route="route43" type="Car"/>
<vehicle depart ="58" id="car49" route="route34" type="Car"/>
<vehicle depart ="59" id="car50" route="route21" type="Car"/>
<vehicle depart ="63" id="car51" route="route34" type="Car"/>
<vehicle depart ="63" id="car52" route="route34" type="Car"/>
<vehicle depart ="65" id="car53" route="route21" type="Car"/>
<vehicle depart ="65" id="car54" route="route34" type="Car"/>
<vehicle depart ="67" id="car55" route="route12" type="Car"/>
<vehicle depart ="67" id="car56" route="route43" type="Car"/>
<vehicle depart ="68" id="car57" route="route21" type="Car"/>
<vehicle depart ="68" id="car58" route="route34" type="Car"/>
<vehicle depart ="68" id="car59" route="route12" type="Car"/>
<vehicle depart ="69" id="car60" route="route21" type="Car"/>
<vehicle depart ="70" id="car61" route="route43" type="Car"/>
<vehicle depart ="70" id="car62" route="route43" type="Car"/>
<vehicle depart ="70" id="car63" route="route12" type="Car"/>
<vehicle depart ="71" id="car64" route="route12" type="Car"/>
<vehicle depart ="72" id="car65" route="route34" type="Car"/>
<vehicle depart ="73" id="car66" route="route12" type="Car"/>
<vehicle depart ="73" id="car67" route="route12" type="Car"/>
<vehicle depart ="76" id="car68" route="route34" type="Car"/>
<vehicle depart ="76" id="car69" route="route21" type="Car"/>
<vehicle depart ="76" id="car70" route="route21" type="Car"/>
<vehicle depart ="77" id="car71" route="route21" type="Car"/>
<vehicle depart ="77" id="car72" route="route34" type="Car"/>
<vehicle depart ="78" id="car73" route="route34" type="Car"/>
<vehicle depart ="79" id="car74" route="route34" type="Car"/>
<vehicle depart ="80" id="car75" route="route43" type="Car"/>
<vehicle depart ="80" id="car76" route="route21" type="Car"/>
<vehicle depart ="81" id="car77" route="route21" type="Car"/>
<vehicle depart ="81" id="car78" route="route21" type="Car"/>
<vehicle depart ="83" id="car79" route="route43" type="Car"/>
<vehicle depart ="85" id="car80" route="route43" type="Car"/>
<vehicle depart ="86" id="car81" route="route34" type="Car"/>
<vehicle depart ="87" id="car82" route="route21" type="Car"/>
<vehicle depart ="90" id="car83" route="route34" type="Car"/>
<vehicle depart ="91" id="car84" route="route12" type="Car"/>
<vehicle depart ="92" id="car85" route="route12" type="Car"/>
<vehicle depart ="93" id="car86" route="route12" type="Car"/>
<vehicle depart ="93" id="car87" route="route34" type="Car"/>
<vehicle depart ="93" id="car88" route="route12" type="Car"/>
<vehicle depart ="96" id="car89" route="route43" type="Car"/>
<vehicle depart ="96" id="car90" route="route12" type="Car"/>
<vehicle depart ="97" id="car91" route="route21" type="Car"/>
<vehicle depart ="98" id="car92" route="route43" type="Car"/>
<vehicle depart ="99" id="car93" route="route34" type="Car"/>
<vehicle depart ="99" id="car94" route="route34" type="Car"/>
<vehicle depart ="100" id="car95" route="route43" type="Car"/>
<vehicle depart ="101" id="car96" route="route12" type="Car"/>
<vehicle depart ="103" id="car97" route="route34" type="Car"/>
<vehicle depart ="103" id="car98" route="route21" type="Car"/>
<vehicle depart ="104" id="car99" route="route21" type="Car"/>
<vehicle depart ="106" id="car100" route="route21" type="Car"/>
<vehicle depart ="107" id="car101" route="route21" type="Car"/>
<vehicle depart ="107" id="car102" route="route43" type="Car"/>
<vehicle depart ="108" id="car103" route="route21" type="Car"/>
<vehicle depart ="108" id="car104" route="route34" type="Car"/>
<vehicle depart ="109" id="car105" route="route34" type="Car"/>
<vehicle depart ="110" id="car106" route="route21" type="Car"/>
<vehicle depart ="111" id="car107" route="route12" type="Car"/>
<vehicle depart ="111" id="car108" route="route12" type="Car"/>
<vehicle depart ="114" id="car109" route="route34" type="Car"/>
<vehicle depart ="115" id="car110" route="route34" type="Car"/>
<vehicle depart ="118" id="car111" route="route34" type="Car"/>
<vehicle depart ="118" id="car112" route="route21" type="Car"/>
<vehicle depart ="120" id="car113" route="route43" type="Car"/>
<vehicle depart ="120" id="car114" route="route34" type="Car"/>
<vehicle depart ="120" id="car115" route="route21" type="Car"/>
<vehicle depart ="121" id="car116" route="route21" type="Car"/>
<vehicle depart ="122" id="car117" route="route34" type="Car"/>
<vehicle depart ="122" id="car118" route="route43" type="Car"/>
<vehicle depart ="123" id="car119" route="route21" type="Car"/>
<vehicle depart ="127" id="car120" route="route43" type="Car"/>
<vehicle depart ="129" id="car121" route="route21" type="Car"/>
<vehicle depart ="129" id="car122" route="route43" type="Car"/>
<vehicle depart ="130" id="car123" route="route34" type="Car"/>
<vehicle depart ="131" id="car124" route="route43" type="Car"/>
<vehicle depart ="133" id="car125" route="route34" type="Car"/>
<vehicle depart ="135" id="car126" route="route12" type="Car"/>
<vehicle depart ="136" id="car127" route="route43" type="Car"/>
<vehicle depart ="136" id="car128" route="route34" type="Car"/>
<vehicle depart ="136" id="car129" route="route34" type="Car"/>
<vehicle depart ="138" id="car130" route="route43" type="Car"/>
<vehicle depart ="138" id="car131" route="route43" type="Car"/>
<vehicle depart ="138" id="car132" route="route43" type="Car"/>
<vehicle depart ="139" id="car133" route="route34" type="Car"/>
<vehicle depart ="140" id="car134" route="route12" type="Car"/>
<vehicle depart ="141" id="car135" route="route34" type="Car"/>
<vehicle depart ="141" id="car136" route="route21" type="Car"/>
<vehicle depart ="142" id="car137" route="route34" type="Car"/>
<vehicle depart ="142" id="car138" route="route12" type="Car"/>
<vehicle depart ="144" id="car139" route="route12" type="Car"/>
<vehicle depart ="144" id="car140" route="route43" type="Car"/>
<vehicle depart ="145" id="car141" route="route43" type="Car"/>
<vehicle depart ="147" id="car142" route="route21" type="Car"/>
<vehicle depart ="148" id="car143" route="route12" type="Car"/>
<vehicle depart ="148" id="car144" route="route34" type="Car"/>
<vehicle depart ="148" id="car145" route="route43" type="Car"/>
<vehicle depart ="150" id="car146" route="route21" type="Car"/>
<vehicle depart ="150" id="car147" route="route21" type="Car"/>
<vehicle depart ="152" id="car148" route="route43" type="Car"/>
<vehicle depart ="152" id="car149" route="route21" type="Car"/>
<vehicle depart ="152" id="car150" route="route21" type="Car"/>
<vehicle depart ="152" id="car151" route="route21" type="Car"/>
<vehicle depart ="153" id="car152" route="route34" type="Car"/>
<vehicle depart ="154" id="car153" route="route34" type="Car"/>
<vehicle depart ="157" id="car154" route="route43" type="Car"/>
<vehicle depart ="158" id="car155" route="route12" type="Car"/>
<vehicle depart ="160" id="car156" route="route34" type="Car"/>
<vehicle depart ="161" id="car157" route="route12" type="Car"/>
<vehicle depart ="164" id="car158" route="route34" type="Car"/>
<vehicle depart ="164" id="car159" route="route12" type="Car"/>
<vehicle depart ="165" id="car160" route="route43" type="Car"/>
<vehicle depart ="166" id="car161" route="route34" type="Car"/>
<vehicle depart ="168" id="car162" route="route21" type="Car"/>
<vehicle depart ="169" id="car163" route="route12" type="Car"/>
<vehicle depart ="169" id="car164" route="route21" type="Car"/>
<vehicle depart ="170" id="car165" route="route21" type="Car"/>
<vehicle depart ="170" id="car166" route="route43" type="Car"/>
<vehicle depart ="173" id="car167" route="route21" type="Car"/>
<vehicle depart ="173" id="car168" route="route12" type="Car"/>
<vehicle depart ="174" id="car169" route="route21" type="Car"/>
<vehicle depart ="174" id="car170" route="route34" type="Car"/>
<vehicle depart ="174" id="car171" route="route34" type="Car"/>
<vehicle depart ="174" id="car172" route="route34" type="Car"/>
<vehicle depart ="174" id="car173" route="route21" type="Car"/>
<vehicle depart ="175" id="car174" route="route34" type="Car"/>
<vehicle depart ="175" id="car175" route="route43" type="Car"/>
<vehicle depart ="175" id="car176" route="route34" type="Car"/>
<vehicle depart ="176" id="car177" route="route43" type="Car"/>
<vehicle depart ="177" id="car178" route="route43" type="Car"/>
<vehicle depart ="178" id="car179" route="route34" type="Car"/>
<vehicle depart ="180" id="car180" route="route34" type="Car"/>
<vehicle depart ="180" id="car181" route="route12" type="Car"/>
<vehicle depart ="180" id="car182" route="route34" type="Car"/>
<vehicle depart ="181" id="car183" route="route43" type="Car"/>
<vehicle depart ="181" id="car184" route="route34" type="Car"/>
<vehicle depart ="183" id="car185" route="route21" type="Car"/>
<vehicle depart ="183" id="car186" route="route12" type="Car"/>
<vehicle depart ="184" id="car187" route="route43" type="Car"/>
<vehicle depart ="186" id="car188" route="route12" type="Car"/>
<vehicle depart ="186" id="car189" route="route12" type="Car"/>
<vehicle depart ="187" id="car190" route="route43" type="Car"/>
<vehicle depart ="189" id="car191" route="route12" type="Car"/>
<vehicle depart ="189" id="car192" route="route43" type="Car"/>
<vehicle depart ="190" id="car193" route="route34" type="Car"/>
<vehicle depart ="190" id="car194" route="route12" type="Car"/>
<vehicle depart ="191" id="car195" route="route21" type="Car"/>
<vehicle depart ="192" id="car196" route="route12" type="Car"/>
<vehicle depart ="193" id="car197" route="route21" type="Car"/>
<vehicle depart ="193" id="car198" route="route43" type="Car"/>
<vehicle depart ="194" id="car199" route="route34" type="Car"/>
<vehicle depart ="196" id="car200" route="route43" type="Car"/>
<vehicle depart ="197" id="car201" route="route43" type="Car"/>
<vehicle depart ="197" id="car202" route="route34" type="Car"/>
<vehicle depart ="198" id="car203" route="route43" type="Car"/>
<vehicle depart ="199" id="car204" route="route21" type="Car"/>
<vehicle depart ="199" id="car205" route="route21" type="Car"/>
<vehicle depart ="200" id="car206" route="route34" type="Car"/>
<vehicle depart ="201" id="car207" route="route34" type="Car"/>
<vehicle depart ="201" id="car208" route="route43" type="Car"/>
<vehicle depart ="202" id="car209" route="route34" type="Car"/>
<vehicle depart ="202" id="car210" route="route43" type="Car"/>
<vehicle depart ="204" id="car211" route="route43" type="Car"/>
<vehicle depart ="204" id="car212" route="route21" type="Car"/>
<vehicle depart ="205" id="car213" route="route43" type="Car"/>
<vehicle depart ="206" id="car214" route="route34" type="Car"/>
<vehicle depart ="206" id="car215" route="route34" type="Car"/>
<vehicle depart ="206" id="car216" route="route12" type="Car"/>
<vehicle depart ="207" id="car217" route="route34" type="Car"/>
<vehicle depart ="208" id="car218" route="route12" type="Car"/>
<vehicle depart ="209" id="car219" route="route21" type="Car"/>
<vehicle depart ="210" id="car220" route="route21" type="Car"/>
<vehicle depart ="210" id="car221" route="route12" type="Car"/>
<vehicle depart ="210" id="car222" route="route12" type="Car"/>
<vehicle depart ="210" id="car223" route="route34" type="Car"/>
<vehicle depart ="211" id="car224" route="route21" type="Car"/>
<vehicle depart ="213" id="car225" route="route21" type="Car"/>
<vehicle depart ="214" id="car226" route="route43" type="Car"/>
<vehicle depart ="214" id="car227" route="route34" type="Car"/>
<vehicle depart ="215" id="car228" route="route34" type="Car"/>
<vehicle depart ="216" id="car229" route="route12" type="Car"/>
<vehicle depart ="216" id="car230" route="route21" type="Car"/>
<vehicle depart ="218" id="car231" route="route43" type="Car"/>
<vehicle depart ="218" id="car232" route="route12" type="Car"/>
<vehicle depart ="219" id="car233" route="route43" type="Car"/>
<vehicle depart ="219" id="car234" route="route12" type="Car"/>
<vehicle depart ="219" id="car235" route="route21" type="Car"/>
<vehicle depart ="219" id="car236" route="route43" type="Car"/>
<vehicle depart ="220" id="car237" route="route34" type="Car"/>
<vehicle depart ="221" id="car238" route="route34" type="Car"/>
<vehicle depart ="222" id="car239" route="route34" type="Car"/>
<vehicle depart ="223" id="car240" route="route21" type="Car"/>
<vehicle depart ="225" id="car241" route="route43" type="Car"/>
<vehicle depart ="226" id="car242" route="route34" type="Car"/>
<vehicle depart ="227" id="car243" route="route21" type="Car"/>
<vehicle depart ="228" id="car244" route="route21" type="Car"/>
<vehicle depart ="229" id="car245" route="route34" type="Car"/>
<vehicle depart ="230" id="car246" route="route12" type="Car"/>
<vehicle depart ="231" id="car247" route="route21" type="Car"/>
<vehicle depart ="231" id="car248" route="route12" type="Car"/>
<vehicle depart ="232" id="car249" route="route43" type="Car"/>
<vehicle depart ="234" id="car250" route="route12" type="Car"/>
<vehicle depart ="239" id="car251" route="route43" type="Car"/>
<vehicle depart ="239" id="car252" route="route12" type="Car"/>
<vehicle depart ="241" id="car253" route="route12" type="Car"/>
<vehicle depart ="243" id="car254" route="route21" type="Car"/>
<vehicle depart ="244" id="car255" route="route34" type="Car"/>
<vehicle depart ="246" id="car256" route="route34" type="Car"/>
<vehicle depart ="249" id="car257" route="route21" type="Car"/>
<vehicle depart ="250" id="car258" route="route12" type="Car"/>
<vehicle depart ="251" id="car259" route="route12" type="Car"/>
<vehicle depart ="252" id="car260" route="route34" type="Car"/>
<vehicle depart ="253" id="car261" route="route43" type="Car"/>
<vehicle depart ="256" id="car262" route="route43" type="Car"/>
<vehicle depart ="258" id="car263" route="route12" type="Car"/>
<vehicle depart ="258" id="car264" route="route34" type="Car"/>
<vehicle depart ="260" id="car265" route="route43" type="Car"/>
<vehicle depart ="260" id="car266" route="route21" type="Car"/>
<vehicle depart ="261" id="car267" route="route43" type="Car"/>
<vehicle depart ="262" id="car268" route="route34" type="Car"/>
<vehicle depart ="262" id="car269" route="route12" type="Car"/>
<vehicle depart ="263" id="car270" route="route34" type="Car"/>
<vehicle depart ="265" id="car271" route="route43" type="Car"/>
<vehicle depart ="266" id="car272" route="route34" type="Car"/>
<vehicle depart ="266" id="car273" route="route12" type="Car"/>
<vehicle depart ="266" id="car274" route="route21" type="Car"/>
<vehicle depart ="267" id="car275" route="route34" type="Car"/>
<vehicle depart ="268" id="car276" route="route43" type="Car"/>
<vehicle depart ="270" id="car277" route="route21" type="Car"/>
<vehicle depart ="270" id="car278" route="route21" type="Car"/>
<vehicle depart ="271" id="car279" route="route12" type="Car"/>
<vehicle depart ="273" id="car280" route="route34" type="Car"/>
<vehicle depart ="274" id="car281" route="route21" type="Car"/>
<vehicle depart ="275" id="car282" route="route34" type="Car"/>
<vehicle depart ="275" id="car283" route="route43" type="Car"/>
<vehicle depart ="275" id="car284" route="route34" type="Car"/>
<vehicle depart ="277" id="car285" route="route34" type="Car"/>
<vehicle depart ="278" id="car286" route="route12" type="Car"/>
<vehicle depart ="279" id="car287" route="route43" type="Car"/>
<vehicle depart ="279" id="car288" route="route12" type="Car"/>
<vehicle depart ="280" id="car289" route="route12" type="Car"/>
<vehicle depart ="280" id="car290" route="route43" type="Car"/>
<vehicle depart ="280" id="car291" route="route43" type="Car"/>
<vehicle depart ="281" id="car292" route="route34" type="Car"/>
<vehicle depart ="283" id="car293" route="route12" type="Car"/>
<vehicle depart ="284" id="car294" route="route21" type="Car"/>
<vehicle depart ="285" id="car295" route="route12" type="Car"/>
<vehicle depart ="287" id="car296" route="route12" type="Car"/>
<vehicle depart ="287" id="car297" route="route43" type="Car"/>
<vehicle depart ="288" id="car298" route="route43" type="Car"/>
<vehicle depart ="290" id="car299" route="route34" type="Car"/>
<vehicle depart ="290" id="car300" route="route12" type="Car"/>
<vehicle depart ="291" id="car301" route="route12" type="Car"/>
<vehicle depart ="291" id="car302" route="route43" type="Car"/>
<vehicle depart ="291" id="car303" route="route21" type="Car"/>
<vehicle depart ="291" id="car304" route="route12" type="Car"/>
<vehicle depart ="295" id="car305" route="route43" type="Car"/>
<vehicle depart ="295" id="car306" route="route12" type="Car"/>
<vehicle depart ="295" id="car307" route="route34" type="Car"/>
<vehicle depart ="296" id="car308" route="route34" type="Car"/>
<vehicle depart ="296" id="car309" route="route43" type="Car"/>
<vehicle depart ="296" id="car310" route="route43" type="Car"/>
<vehicle depart ="297" id="car311" route="route43" type="Car"/>
<vehicle depart ="298" id="car312" route="route21" type="Car"/>
<vehicle depart ="298" id="car313" route="route21" type="Car"/>
<vehicle depart ="300" id="car314" route="route34" type="Car"/>
<vehicle depart ="304" id="car315" route="route12" type="Car"/>
<vehicle depart ="305" id="car316" route="route43" type="Car"/>
<vehicle depart ="307" id="car317" route="route12" type="Car"/>
<vehicle depart ="310" id="car318" route="route21" type="Car"/>
<vehicle depart ="313" id="car319" route="route12" type="Car"/>
<vehicle depart ="313" id="car320" route="route34" type="Car"/>
<vehicle depart ="315" id="car321" route="route12" type="Car"/>
<vehicle depart ="316" id="car322" route="route21" type="Car"/>
<vehicle depart ="318" id="car323" route="route34" type="Car"/>
<vehicle depart ="321" id="car324" route="route43" type="Car"/>
<vehicle depart ="321" id="car325" route="route12" type="Car"/>
<vehicle depart ="326" id="car326" route="route21" type="Car"/>
<vehicle depart ="326" id="car327" route="route12" type="Car"/>
<vehicle depart ="328" id="car328" route="route12" type="Car"/>
<vehicle depart ="328" id="car329" route="route34" type="Car"/>
<vehicle depart ="331" id="car330" route="route21" type="Car"/>
<vehicle depart ="332" id="car331" route="route34" type="Car"/>
<vehicle depart ="332" id="car332" route="route43" type="Car"/>
<vehicle depart ="332" id="car333" route="route43" type="Car"/>
<vehicle depart ="332" id="car334" route="route12" type="Car"/>
<vehicle depart ="333" id="car335" route="route21" type="Car"/>
<vehicle depart ="333" id="car336" route="route12" type="Car"/>
<vehicle depart ="334" id="car337" route="route34" type="Car"/>
<vehicle depart ="335" id="car338" route="route43" type="Car"/>
<vehicle depart ="336" id="car339" route="route43" type="Car"/>
<vehicle depart ="337" id="car340" route="route34" type="Car"/>
<vehicle depart ="339" id="car341" route="route12" type="Car"/>
<vehicle depart ="339" id="car342" route="route34" type="Car"/>
<vehicle depart ="340" id="car343" route="route34" type="Car"/>
<vehicle depart ="341" id="car344" route="route21" type="Car"/>
<vehicle depart ="341" id="car345" route="route21" type="Car"/>
<vehicle depart ="341" id="car346" route="route34" type="Car"/>
<vehicle depart ="343" id="car347" route="route12" type="Car"/>
<vehicle depart ="344" id="car348" route="route34" type="Car"/>
<vehicle depart ="345" id="car349" route="route34" type="Car"/>
<vehicle depart ="346" id="car350" route="route21" type="Car"/>
<vehicle depart ="346" id="car351" route="route34" type="Car"/>
<vehicle depart ="347" id="car352" route="route34" type="Car"/>
<vehicle depart ="348" id="car353" route="route12" type="Car"/>
<vehicle depart ="348" id="car354" route="route34" type="Car"/>
<vehicle depart ="349" id="car355" route="route21" type="Car"/>
<vehicle depart ="349" id="car356" route="route12" type="Car"/>
<vehicle depart ="353" id="car357" route="route34" type="Car"/>
<vehicle depart ="353" id="car358" route="route43" type="Car"/>
<vehicle depart ="354" id="car359" route="route34" type="Car"/>
<vehicle depart ="355" id="car360" route="route34" type="Car"/>
<vehicle depart ="355" id="car361" route="route12" type="Car"/>
<vehicle depart ="356" id="car362" route="route21" type="Car"/>
<vehicle depart ="359" id="car363" route="route12" type="Car"/>
<vehicle depart ="361" id="car364" route="route12" type="Car"/>
<vehicle depart ="361" id="car365" route="route21" type="Car"/>
<vehicle depart ="361" id="car366" route="route34" type="Car"/>
<vehicle depart ="362" id="car367" route="route21" type="Car"/>
<vehicle depart ="363" id="car368" route="route21" type="Car"/>
<vehicle depart ="364" id="car369" route="route34" type="Car"/>
<vehicle depart ="365" id="car370" route="route34" type="Car"/>
<vehicle depart ="365" id="car371" route="route43" type="Car"/>
<vehicle depart ="365" id="car372" route="route21" type="Car"/>
<vehicle depart ="370" id="car373" route="route12" type="Car"/>
<vehicle depart ="374" id="car374" route="route12" type="Car"/>
<vehicle depart ="375" id="car375" route="route43" type="Car"/>
<vehicle depart ="375" id="car376" route="route21" type="Car"/>
<vehicle depart ="376" id="car377" route="route12" type="Car"/>
<vehicle depart ="376" id="car378" route="route34" type="Car"/>
<vehicle depart ="377" id="car379" route="route43" type="Car"/>
<vehicle depart ="377" id="car380" route="route21" type="Car"/>
<vehicle depart ="378" id="car381" route="route12" type="Car"/>
<vehicle depart ="378" id="car382" route="route21" type="Car"/>
<vehicle depart ="382" id="car383" route="route34" type="Car"/>
<vehicle depart ="384" id="car384" route="route12" type="Car"/>
<vehicle depart ="384" id="car385" route="route21" type="Car"/>
<vehicle depart ="384" id="car386" route="route34" type="Car"/>
<vehicle depart ="386" id="car387" route="route43" type="Car"/>
<vehicle depart ="389" id="car388" route="route43" type="Car"/>
<vehicle depart ="391" id="car389" route="route43" type="Car"/>
<vehicle depart ="392" id="car390" route="route21" type="Car"/>
<vehicle depart ="392" id="car391" route="route43" type="Car"/>
<vehicle depart ="393" id="car392" route="route34" type="Car"/>
<vehicle depart ="396" id="car393" route="route12" type="Car"/>
<vehicle depart ="397" id="car394" route="route12" type="Car"/>
<vehicle depart ="397" id="car395" route="route34" type="Car"/>
<vehicle depart ="398" id="car396" route="route12" type="Car"/>
<vehicle depart ="398" id="car397" route="route34" type="Car"/>
<vehicle depart ="399" id="car398" route="route12" type="Car"/>
<vehicle depart ="400" id="car399" route="route12" type="Car"/>

</routes>