<routes>
    <vType accel="1.0" decel="5.0" id="Car" jmIgnoreKeepClearTime="100.0" maxSpeed="30" length="3" vClass="passenger"/>

        
    <!--emergencyDecel="0.0"-->
    <route id="route12" edges="Road1 Road2_out"/> <!-- Geradeaus-->
    <route id="route13" edges="Road1 Road3_out"/>
    <route id="route14" edges="Road1 Road4_out"/>

    <route id="route21" edges="Road2 Road1_out"/> <!-- Geradeaus-->
    <route id="route23" edges="Road2 Road3_out"/>
    <route id="route24" edges="Road2 Road4_out"/> 

    <route id="route31" edges="Road3 Road1_out"/> 
    <route id="route32" edges="Road3 Road2_out"/> 
    <route id="route34" edges="Road3 Road4_out"/> <!-- Geradeaus-->

    <route id="route41" edges="Road4 Road1_out"/>
    <route id="route42" edges="Road4 Road2_out"/>
    <route id="route43" edges="Road4 Road3_out"/> <!-- Geradeaus-->



    <vehicle depart ="5" id="car0" route="route34" type="Car"/>
<vehicle depart ="10" id="car1" route="route12" type="Car"/>
<vehicle depart ="11" id="car2" route="route43" type="Car"/>
<vehicle depart ="13" id="car3" route="route12" type="Car"/>
<vehicle depart ="14" id="car4" route="route21" type="Car"/>
<vehicle depart ="19" id="car5" route="route34" type="Car"/>
<vehicle depart ="19" id="car6" route="route12" type="Car"/>
<vehicle depart ="21" id="car7" route="route43" type="Car"/>
<vehicle depart ="21" id="car8" route="route43" type="Car"/>
<vehicle depart ="22" id="car9" route="route43" type="Car"/>
<vehicle depart ="37" id="car10" route="route12" type="Car"/>
<vehicle depart ="37" id="car11" route="route12" type="Car"/>
<vehicle depart ="37" id="car12" route="route12" type="Car"/>
<vehicle depart ="38" id="car13" route="route43" type="Car"/>
<vehicle depart ="46" id="car14" route="route34" type="Car"/>
<vehicle depart ="49" id="car15" route="route43" type="Car"/>
<vehicle depart ="50" id="car16" route="route43" type="Car"/>
<vehicle depart ="54" id="car17" route="route12" type="Car"/>
<vehicle depart ="56" id="car18" route="route43" type="Car"/>
<vehicle depart ="57" id="car19" route="route21" type="Car"/>
<vehicle depart ="67" id="car20" route="route43" type="Car"/>
<vehicle depart ="68" id="car21" route="route34" type="Car"/>
<vehicle depart ="71" id="car22" route="route21" type="Car"/>
<vehicle depart ="74" id="car23" route="route43" type="Car"/>
<vehicle depart ="75" id="car24" route="route34" type="Car"/>
<vehicle depart ="81" id="car25" route="route34" type="Car"/>
<vehicle depart ="82" id="car26" route="route12" type="Car"/>
<vehicle depart ="86" id="car27" route="route43" type="Car"/>
<vehicle depart ="89" id="car28" route="route21" type="Car"/>
<vehicle depart ="94" id="car29" route="route43" type="Car"/>
<vehicle depart ="94" id="car30" route="route12" type="Car"/>
<vehicle depart ="94" id="car31" route="route34" type="Car"/>
<vehicle depart ="95" id="car32" route="route21" type="Car"/>
<vehicle depart ="98" id="car33" route="route34" type="Car"/>
<vehicle depart ="99" id="car34" route="route43" type="Car"/>
<vehicle depart ="102" id="car35" route="route12" type="Car"/>
<vehicle depart ="104" id="car36" route="route21" type="Car"/>
<vehicle depart ="106" id="car37" route="route12" type="Car"/>
<vehicle depart ="110" id="car38" route="route12" type="Car"/>
<vehicle depart ="121" id="car39" route="route21" type="Car"/>
<vehicle depart ="123" id="car40" route="route12" type="Car"/>
<vehicle depart ="125" id="car41" route="route21" type="Car"/>
<vehicle depart ="128" id="car42" route="route43" type="Car"/>
<vehicle depart ="131" id="car43" route="route21" type="Car"/>
<vehicle depart ="135" id="car44" route="route34" type="Car"/>
<vehicle depart ="136" id="car45" route="route43" type="Car"/>
<vehicle depart ="138" id="car46" route="route21" type="Car"/>
<vehicle depart ="149" id="car47" route="route21" type="Car"/>
<vehicle depart ="152" id="car48" route="route12" type="Car"/>
<vehicle depart ="154" id="car49" route="route12" type="Car"/>
<vehicle depart ="156" id="car50" route="route12" type="Car"/>
<vehicle depart ="157" id="car51" route="route12" type="Car"/>
<vehicle depart ="162" id="car52" route="route34" type="Car"/>
<vehicle depart ="174" id="car53" route="route34" type="Car"/>
<vehicle depart ="178" id="car54" route="route34" type="Car"/>
<vehicle depart ="179" id="car55" route="route21" type="Car"/>
<vehicle depart ="179" id="car56" route="route21" type="Car"/>
<vehicle depart ="181" id="car57" route="route34" type="Car"/>
<vehicle depart ="188" id="car58" route="route21" type="Car"/>
<vehicle depart ="198" id="car59" route="route43" type="Car"/>
<vehicle depart ="198" id="car60" route="route43" type="Car"/>
<vehicle depart ="199" id="car61" route="route21" type="Car"/>
<vehicle depart ="199" id="car62" route="route43" type="Car"/>
<vehicle depart ="206" id="car63" route="route34" type="Car"/>
<vehicle depart ="206" id="car64" route="route21" type="Car"/>
<vehicle depart ="210" id="car65" route="route43" type="Car"/>
<vehicle depart ="215" id="car66" route="route21" type="Car"/>
<vehicle depart ="216" id="car67" route="route43" type="Car"/>
<vehicle depart ="218" id="car68" route="route21" type="Car"/>
<vehicle depart ="221" id="car69" route="route12" type="Car"/>
<vehicle depart ="223" id="car70" route="route34" type="Car"/>
<vehicle depart ="226" id="car71" route="route43" type="Car"/>
<vehicle depart ="230" id="car72" route="route34" type="Car"/>
<vehicle depart ="241" id="car73" route="route12" type="Car"/>
<vehicle depart ="246" id="car74" route="route12" type="Car"/>
<vehicle depart ="249" id="car75" route="route12" type="Car"/>
<vehicle depart ="253" id="car76" route="route34" type="Car"/>
<vehicle depart ="254" id="car77" route="route34" type="Car"/>
<vehicle depart ="257" id="car78" route="route34" type="Car"/>
<vehicle depart ="258" id="car79" route="route34" type="Car"/>
<vehicle depart ="259" id="car80" route="route21" type="Car"/>
<vehicle depart ="260" id="car81" route="route21" type="Car"/>
<vehicle depart ="261" id="car82" route="route12" type="Car"/>
<vehicle depart ="267" id="car83" route="route34" type="Car"/>
<vehicle depart ="268" id="car84" route="route34" type="Car"/>
<vehicle depart ="270" id="car85" route="route43" type="Car"/>
<vehicle depart ="273" id="car86" route="route21" type="Car"/>
<vehicle depart ="273" id="car87" route="route34" type="Car"/>
<vehicle depart ="276" id="car88" route="route43" type="Car"/>
<vehicle depart ="282" id="car89" route="route21" type="Car"/>
<vehicle depart ="284" id="car90" route="route34" type="Car"/>
<vehicle depart ="286" id="car91" route="route12" type="Car"/>
<vehicle depart ="287" id="car92" route="route43" type="Car"/>
<vehicle depart ="290" id="car93" route="route43" type="Car"/>
<vehicle depart ="290" id="car94" route="route43" type="Car"/>
<vehicle depart ="291" id="car95" route="route34" type="Car"/>
<vehicle depart ="295" id="car96" route="route12" type="Car"/>
<vehicle depart ="296" id="car97" route="route21" type="Car"/>
<vehicle depart ="301" id="car98" route="route43" type="Car"/>
<vehicle depart ="303" id="car99" route="route21" type="Car"/>
<vehicle depart ="305" id="car100" route="route21" type="Car"/>
<vehicle depart ="305" id="car101" route="route12" type="Car"/>
<vehicle depart ="312" id="car102" route="route21" type="Car"/>
<vehicle depart ="312" id="car103" route="route12" type="Car"/>
<vehicle depart ="312" id="car104" route="route12" type="Car"/>
<vehicle depart ="317" id="car105" route="route12" type="Car"/>
<vehicle depart ="321" id="car106" route="route12" type="Car"/>
<vehicle depart ="322" id="car107" route="route43" type="Car"/>
<vehicle depart ="328" id="car108" route="route12" type="Car"/>
<vehicle depart ="328" id="car109" route="route34" type="Car"/>
<vehicle depart ="334" id="car110" route="route21" type="Car"/>
<vehicle depart ="337" id="car111" route="route21" type="Car"/>
<vehicle depart ="338" id="car112" route="route12" type="Car"/>
<vehicle depart ="339" id="car113" route="route12" type="Car"/>
<vehicle depart ="345" id="car114" route="route12" type="Car"/>
<vehicle depart ="345" id="car115" route="route34" type="Car"/>
<vehicle depart ="345" id="car116" route="route21" type="Car"/>
<vehicle depart ="347" id="car117" route="route43" type="Car"/>
<vehicle depart ="354" id="car118" route="route12" type="Car"/>
<vehicle depart ="355" id="car119" route="route34" type="Car"/>
<vehicle depart ="359" id="car120" route="route21" type="Car"/>
<vehicle depart ="362" id="car121" route="route12" type="Car"/>
<vehicle depart ="366" id="car122" route="route21" type="Car"/>
<vehicle depart ="369" id="car123" route="route34" type="Car"/>
<vehicle depart ="371" id="car124" route="route43" type="Car"/>
<vehicle depart ="373" id="car125" route="route34" type="Car"/>
<vehicle depart ="378" id="car126" route="route43" type="Car"/>
<vehicle depart ="382" id="car127" route="route34" type="Car"/>
<vehicle depart ="388" id="car128" route="route21" type="Car"/>
<vehicle depart ="389" id="car129" route="route43" type="Car"/>
<vehicle depart ="393" id="car130" route="route43" type="Car"/>
<vehicle depart ="394" id="car131" route="route34" type="Car"/>
<vehicle depart ="396" id="car132" route="route12" type="Car"/>

</routes>