<routes>
    <vType accel="1.0" decel="5.0" id="Car" jmIgnoreKeepClearTime="100.0" maxSpeed="30" length="3" />

        
    <!--emergencyDecel="0.0"-->
    <route id="route12" edges="Road1 Road2_out"/> <!-- Geradeaus-->
    <route id="route13" edges="Road1 Road3_out"/>
    <route id="route14" edges="Road1 Road4_out"/>

    <route id="route21" edges="Road2 Road1_out"/> <!-- Geradeaus-->
    <route id="route23" edges="Road2 Road3_out"/>
    <route id="route24" edges="Road2 Road4_out"/> 

    <route id="route31" edges="Road3 Road1_out"/> 
    <route id="route32" edges="Road3 Road2_out"/> 
    <route id="route34" edges="Road3 Road4_out"/> <!-- Geradeaus-->

    <route id="route41" edges="Road4 Road1_out"/>
    <route id="route42" edges="Road4 Road2_out"/>
    <route id="route43" edges="Road4 Road3_out"/> <!-- Geradeaus-->



    <vehicle depart ="7" id="car0" route="route43" type="Car"/>
<vehicle depart ="19" id="car1" route="route21" type="Car"/>
<vehicle depart ="19" id="car2" route="route43" type="Car"/>
<vehicle depart ="21" id="car3" route="route12" type="Car"/>
<vehicle depart ="34" id="car4" route="route34" type="Car"/>
<vehicle depart ="36" id="car5" route="route12" type="Car"/>
<vehicle depart ="59" id="car6" route="route21" type="Car"/>
<vehicle depart ="63" id="car7" route="route12" type="Car"/>
<vehicle depart ="71" id="car8" route="route34" type="Car"/>
<vehicle depart ="71" id="car9" route="route34" type="Car"/>
<vehicle depart ="73" id="car10" route="route21" type="Car"/>
<vehicle depart ="74" id="car11" route="route21" type="Car"/>
<vehicle depart ="82" id="car12" route="route12" type="Car"/>
<vehicle depart ="87" id="car13" route="route12" type="Car"/>
<vehicle depart ="88" id="car14" route="route21" type="Car"/>
<vehicle depart ="88" id="car15" route="route34" type="Car"/>
<vehicle depart ="99" id="car16" route="route34" type="Car"/>
<vehicle depart ="105" id="car17" route="route34" type="Car"/>
<vehicle depart ="108" id="car18" route="route43" type="Car"/>
<vehicle depart ="108" id="car19" route="route34" type="Car"/>
<vehicle depart ="118" id="car20" route="route12" type="Car"/>
<vehicle depart ="119" id="car21" route="route34" type="Car"/>
<vehicle depart ="139" id="car22" route="route12" type="Car"/>
<vehicle depart ="140" id="car23" route="route12" type="Car"/>
<vehicle depart ="142" id="car24" route="route12" type="Car"/>
<vehicle depart ="146" id="car25" route="route21" type="Car"/>
<vehicle depart ="150" id="car26" route="route43" type="Car"/>
<vehicle depart ="150" id="car27" route="route34" type="Car"/>
<vehicle depart ="180" id="car28" route="route12" type="Car"/>
<vehicle depart ="193" id="car29" route="route12" type="Car"/>
<vehicle depart ="201" id="car30" route="route21" type="Car"/>
<vehicle depart ="213" id="car31" route="route12" type="Car"/>
<vehicle depart ="213" id="car32" route="route34" type="Car"/>
<vehicle depart ="215" id="car33" route="route43" type="Car"/>
<vehicle depart ="216" id="car34" route="route21" type="Car"/>
<vehicle depart ="234" id="car35" route="route12" type="Car"/>
<vehicle depart ="242" id="car36" route="route21" type="Car"/>
<vehicle depart ="246" id="car37" route="route43" type="Car"/>
<vehicle depart ="248" id="car38" route="route12" type="Car"/>
<vehicle depart ="251" id="car39" route="route34" type="Car"/>
<vehicle depart ="263" id="car40" route="route12" type="Car"/>
<vehicle depart ="275" id="car41" route="route12" type="Car"/>
<vehicle depart ="279" id="car42" route="route43" type="Car"/>
<vehicle depart ="285" id="car43" route="route21" type="Car"/>
<vehicle depart ="290" id="car44" route="route21" type="Car"/>
<vehicle depart ="294" id="car45" route="route21" type="Car"/>
<vehicle depart ="299" id="car46" route="route12" type="Car"/>
<vehicle depart ="307" id="car47" route="route21" type="Car"/>
<vehicle depart ="307" id="car48" route="route21" type="Car"/>
<vehicle depart ="314" id="car49" route="route34" type="Car"/>
<vehicle depart ="334" id="car50" route="route43" type="Car"/>
<vehicle depart ="347" id="car51" route="route34" type="Car"/>
<vehicle depart ="352" id="car52" route="route34" type="Car"/>
<vehicle depart ="359" id="car53" route="route34" type="Car"/>
<vehicle depart ="376" id="car54" route="route34" type="Car"/>
<vehicle depart ="377" id="car55" route="route21" type="Car"/>
<vehicle depart ="386" id="car56" route="route12" type="Car"/>

</routes>