<routes>
    <vType accel="1.0" decel="5.0" id="Car" jmIgnoreKeepClearTime="100.0" maxSpeed="30" length="3" />

        
    <!--emergencyDecel="0.0"-->
    <route id="route12" edges="Road1 Road2_out"/> <!-- Geradeaus-->
    <route id="route13" edges="Road1 Road3_out"/>
    <route id="route14" edges="Road1 Road4_out"/>

    <route id="route21" edges="Road2 Road1_out"/> <!-- Geradeaus-->
    <route id="route23" edges="Road2 Road3_out"/>
    <route id="route24" edges="Road2 Road4_out"/> 

    <route id="route31" edges="Road3 Road1_out"/> 
    <route id="route32" edges="Road3 Road2_out"/> 
    <route id="route34" edges="Road3 Road4_out"/> <!-- Geradeaus-->

    <route id="route41" edges="Road4 Road1_out"/>
    <route id="route42" edges="Road4 Road2_out"/>
    <route id="route43" edges="Road4 Road3_out"/> <!-- Geradeaus-->



    <vehicle depart ="20" id="car0" route="route21" type="Car"/>
<vehicle depart ="42" id="car1" route="route34" type="Car"/>
<vehicle depart ="71" id="car2" route="route21" type="Car"/>
<vehicle depart ="83" id="car3" route="route21" type="Car"/>
<vehicle depart ="93" id="car4" route="route21" type="Car"/>
<vehicle depart ="94" id="car5" route="route12" type="Car"/>
<vehicle depart ="94" id="car6" route="route34" type="Car"/>
<vehicle depart ="95" id="car7" route="route34" type="Car"/>
<vehicle depart ="95" id="car8" route="route43" type="Car"/>
<vehicle depart ="146" id="car9" route="route21" type="Car"/>
<vehicle depart ="151" id="car10" route="route12" type="Car"/>
<vehicle depart ="159" id="car11" route="route34" type="Car"/>
<vehicle depart ="184" id="car12" route="route43" type="Car"/>
<vehicle depart ="198" id="car13" route="route12" type="Car"/>
<vehicle depart ="200" id="car14" route="route12" type="Car"/>
<vehicle depart ="218" id="car15" route="route34" type="Car"/>
<vehicle depart ="219" id="car16" route="route12" type="Car"/>
<vehicle depart ="237" id="car17" route="route34" type="Car"/>
<vehicle depart ="241" id="car18" route="route34" type="Car"/>
<vehicle depart ="247" id="car19" route="route12" type="Car"/>
<vehicle depart ="250" id="car20" route="route21" type="Car"/>
<vehicle depart ="252" id="car21" route="route43" type="Car"/>
<vehicle depart ="267" id="car22" route="route43" type="Car"/>
<vehicle depart ="276" id="car23" route="route43" type="Car"/>
<vehicle depart ="285" id="car24" route="route12" type="Car"/>
<vehicle depart ="289" id="car25" route="route21" type="Car"/>
<vehicle depart ="291" id="car26" route="route21" type="Car"/>
<vehicle depart ="293" id="car27" route="route34" type="Car"/>
<vehicle depart ="297" id="car28" route="route21" type="Car"/>
<vehicle depart ="311" id="car29" route="route12" type="Car"/>
<vehicle depart ="324" id="car30" route="route21" type="Car"/>
<vehicle depart ="326" id="car31" route="route12" type="Car"/>
<vehicle depart ="329" id="car32" route="route12" type="Car"/>
<vehicle depart ="330" id="car33" route="route12" type="Car"/>
<vehicle depart ="345" id="car34" route="route12" type="Car"/>
<vehicle depart ="353" id="car35" route="route12" type="Car"/>
<vehicle depart ="355" id="car36" route="route12" type="Car"/>
<vehicle depart ="356" id="car37" route="route34" type="Car"/>
<vehicle depart ="368" id="car38" route="route34" type="Car"/>
<vehicle depart ="398" id="car39" route="route43" type="Car"/>

</routes>