<?xml version="1.0" encoding="UTF-8"?>

<!-- generated on 05/23/19 10:39:13 by Eclipse SUMO netconvert Version 1.1.0
<configuration xmlns:xsi="http://www.w3.org/2001/XMLSchema-instance" xsi:noNamespaceSchemaLocation="http://sumo.dlr.de/xsd/netconvertConfiguration.xsd">

    <input>
        <node-files value="NodeFile.nod.xml"/>
        <edge-files value="EdgeFile.edg.xml"/>
        <type-files value="TypeFile.type.xml"/>
    </input>

    <output>
        <output-file value="NetFile.net.xml"/>
    </output>

</configuration>
-->

<net version="1.1" junctionCornerDetail="5" limitTurnSpeed="5.50" xmlns:xsi="http://www.w3.org/2001/XMLSchema-instance" xsi:noNamespaceSchemaLocation="http://sumo.dlr.de/xsd/net_file.xsd">

    <location netOffset="500.00,500.00" convBoundary="0.00,0.00,1000.00,1000.00" origBoundary="-500.00,-500.00,500.00,500.00" projParameter="!"/>

    <type id="3L50" priority="3" numLanes="1" speed="16.00"/>
    <type id="out" priority="1" numLanes="1" speed="16.00"/>

    <edge id=":n1_0" function="internal">
        <lane id=":n1_0_0" index="0" speed="3.65" length="4.67" shape="501.60,1000.00 500.80,1001.20 500.00,1001.60 499.20,1001.20 498.40,1000.00"/>
    </edge>
    <edge id=":n2_0" function="internal">
        <lane id=":n2_0_0" index="0" speed="3.65" length="4.67" shape="498.40,0.00 499.20,-1.20 500.00,-1.60 500.80,-1.20 501.60,0.00"/>
    </edge>
    <edge id=":n3_0" function="internal">
        <lane id=":n3_0_0" index="0" speed="3.65" length="4.67" shape="1000.00,498.40 1001.20,499.20 1001.60,500.00 1001.20,500.80 1000.00,501.60"/>
    </edge>
    <edge id=":n4_0" function="internal">
        <lane id=":n4_0_0" index="0" speed="3.65" length="4.67" shape="0.00,501.60 -1.20,500.80 -1.60,500.00 -1.20,499.20 0.00,498.40"/>
    </edge>
    <edge id=":n5_0" function="internal">
        <lane id=":n5_0_0" index="0" speed="6.51" length="9.03" shape="492.00,513.60 491.65,511.15 490.60,509.40 488.85,508.35 486.40,508.00"/>
    </edge>
    <edge id=":n5_1" function="internal">
        <lane id=":n5_1_0" index="0" speed="16.00" length="27.20" shape="492.00,513.60 492.00,486.40"/>
        <lane id=":n5_1_1" index="1" speed="16.00" length="27.20" shape="495.20,513.60 495.20,486.40"/>
        <lane id=":n5_1_2" index="2" speed="16.00" length="27.20" shape="498.40,513.60 498.40,486.40"/>
    </edge>
    <edge id=":n5_4" function="internal">
        <lane id=":n5_4_0" index="0" speed="10.36" length="24.51" shape="498.40,513.60 499.35,506.95 502.20,502.20 506.95,499.35 513.60,498.40"/>
    </edge>
    <edge id=":n5_5" function="internal">
        <lane id=":n5_5_0" index="0" speed="3.65" length="4.67" shape="498.40,513.60 499.20,512.40 500.00,512.00 500.80,512.40 501.60,513.60"/>
    </edge>
    <edge id=":n5_6" function="internal">
        <lane id=":n5_6_0" index="0" speed="6.51" length="9.03" shape="513.60,508.00 511.15,508.35 509.40,509.40 508.35,511.15 508.00,513.60"/>
    </edge>
    <edge id=":n5_7" function="internal">
        <lane id=":n5_7_0" index="0" speed="16.00" length="27.20" shape="513.60,508.00 486.40,508.00"/>
        <lane id=":n5_7_1" index="1" speed="16.00" length="27.20" shape="513.60,504.80 486.40,504.80"/>
        <lane id=":n5_7_2" index="2" speed="16.00" length="27.20" shape="513.60,501.60 486.40,501.60"/>
    </edge>
    <edge id=":n5_10" function="internal">
        <lane id=":n5_10_0" index="0" speed="10.36" length="24.51" shape="513.60,501.60 506.95,500.65 502.20,497.80 499.35,493.05 498.40,486.40"/>
    </edge>
    <edge id=":n5_11" function="internal">
        <lane id=":n5_11_0" index="0" speed="3.65" length="4.67" shape="513.60,501.60 512.40,500.80 512.00,500.00 512.40,499.20 513.60,498.40"/>
    </edge>
    <edge id=":n5_12" function="internal">
        <lane id=":n5_12_0" index="0" speed="6.51" length="9.03" shape="508.00,486.40 508.35,488.85 509.40,490.60 511.15,491.65 513.60,492.00"/>
    </edge>
    <edge id=":n5_13" function="internal">
        <lane id=":n5_13_0" index="0" speed="16.00" length="27.20" shape="508.00,486.40 508.00,513.60"/>
        <lane id=":n5_13_1" index="1" speed="16.00" length="27.20" shape="504.80,486.40 504.80,513.60"/>
        <lane id=":n5_13_2" index="2" speed="16.00" length="27.20" shape="501.60,486.40 501.60,513.60"/>
    </edge>
    <edge id=":n5_16" function="internal">
        <lane id=":n5_16_0" index="0" speed="10.36" length="24.51" shape="501.60,486.40 500.65,493.05 497.80,497.80 493.05,500.65 486.40,501.60"/>
    </edge>
    <edge id=":n5_17" function="internal">
        <lane id=":n5_17_0" index="0" speed="3.65" length="4.67" shape="501.60,486.40 500.80,487.60 500.00,488.00 499.20,487.60 498.40,486.40"/>
    </edge>
    <edge id=":n5_18" function="internal">
        <lane id=":n5_18_0" index="0" speed="6.51" length="9.03" shape="486.40,492.00 488.85,491.65 490.60,490.60 491.65,488.85 492.00,486.40"/>
    </edge>
    <edge id=":n5_19" function="internal">
        <lane id=":n5_19_0" index="0" speed="16.00" length="27.20" shape="486.40,492.00 513.60,492.00"/>
        <lane id=":n5_19_1" index="1" speed="16.00" length="27.20" shape="486.40,495.20 513.60,495.20"/>
        <lane id=":n5_19_2" index="2" speed="16.00" length="27.20" shape="486.40,498.40 513.60,498.40"/>
    </edge>
    <edge id=":n5_22" function="internal">
        <lane id=":n5_22_0" index="0" speed="10.36" length="24.51" shape="486.40,498.40 493.05,499.35 497.80,502.20 500.65,506.95 501.60,513.60"/>
    </edge>
    <edge id=":n5_23" function="internal">
        <lane id=":n5_23_0" index="0" speed="3.65" length="4.67" shape="486.40,498.40 487.60,499.20 488.00,500.00 487.60,500.80 486.40,501.60"/>
    </edge>

    <edge id="Road1" from="n1" to="n5" priority="3" type="3L50">
        <lane id="Road1_0" index="0" speed="16.00" length="486.40" shape="492.00,1000.00 492.00,513.60"/>
        <lane id="Road1_1" index="1" speed="16.00" length="486.40" shape="495.20,1000.00 495.20,513.60"/>
        <lane id="Road1_2" index="2" speed="16.00" length="486.40" shape="498.40,1000.00 498.40,513.60"/>
    </edge>
    <edge id="Road1_out" from="n5" to="n1" priority="1" type="out">
        <lane id="Road1_out_0" index="0" speed="16.00" length="486.40" shape="508.00,513.60 508.00,1000.00"/>
        <lane id="Road1_out_1" index="1" speed="16.00" length="486.40" shape="504.80,513.60 504.80,1000.00"/>
        <lane id="Road1_out_2" index="2" speed="16.00" length="486.40" shape="501.60,513.60 501.60,1000.00"/>
    </edge>
    <edge id="Road2" from="n2" to="n5" priority="3" type="3L50">
        <lane id="Road2_0" index="0" speed="16.00" length="486.40" shape="508.00,0.00 508.00,486.40"/>
        <lane id="Road2_1" index="1" speed="16.00" length="486.40" shape="504.80,0.00 504.80,486.40"/>
        <lane id="Road2_2" index="2" speed="16.00" length="486.40" shape="501.60,0.00 501.60,486.40"/>
    </edge>
    <edge id="Road2_out" from="n5" to="n2" priority="1" type="out">
        <lane id="Road2_out_0" index="0" speed="16.00" length="486.40" shape="492.00,486.40 492.00,0.00"/>
        <lane id="Road2_out_1" index="1" speed="16.00" length="486.40" shape="495.20,486.40 495.20,0.00"/>
        <lane id="Road2_out_2" index="2" speed="16.00" length="486.40" shape="498.40,486.40 498.40,0.00"/>
    </edge>
    <edge id="Road3" from="n3" to="n5" priority="3" type="3L50">
        <lane id="Road3_0" index="0" speed="16.00" length="486.40" shape="1000.00,508.00 513.60,508.00"/>
        <lane id="Road3_1" index="1" speed="16.00" length="486.40" shape="1000.00,504.80 513.60,504.80"/>
        <lane id="Road3_2" index="2" speed="16.00" length="486.40" shape="1000.00,501.60 513.60,501.60"/>
    </edge>
    <edge id="Road3_out" from="n5" to="n3" priority="1" type="out">
        <lane id="Road3_out_0" index="0" speed="16.00" length="486.40" shape="513.60,492.00 1000.00,492.00"/>
        <lane id="Road3_out_1" index="1" speed="16.00" length="486.40" shape="513.60,495.20 1000.00,495.20"/>
        <lane id="Road3_out_2" index="2" speed="16.00" length="486.40" shape="513.60,498.40 1000.00,498.40"/>
    </edge>
    <edge id="Road4" from="n4" to="n5" priority="3" type="3L50">
        <lane id="Road4_0" index="0" speed="16.00" length="486.40" shape="0.00,492.00 486.40,492.00"/>
        <lane id="Road4_1" index="1" speed="16.00" length="486.40" shape="0.00,495.20 486.40,495.20"/>
        <lane id="Road4_2" index="2" speed="16.00" length="486.40" shape="0.00,498.40 486.40,498.40"/>
    </edge>
    <edge id="Road4_out" from="n5" to="n4" priority="1" type="out">
        <lane id="Road4_out_0" index="0" speed="16.00" length="486.40" shape="486.40,508.00 0.00,508.00"/>
        <lane id="Road4_out_1" index="1" speed="16.00" length="486.40" shape="486.40,504.80 0.00,504.80"/>
        <lane id="Road4_out_2" index="2" speed="16.00" length="486.40" shape="486.40,501.60 0.00,501.60"/>
    </edge>

    <junction id="n1" type="unregulated" x="500.00" y="1000.00" incLanes="Road1_out_0 Road1_out_1 Road1_out_2" intLanes=":n1_0_0" shape="500.00,1000.00 509.60,1000.00 500.00,1000.00"/>
    <junction id="n2" type="unregulated" x="500.00" y="0.00" incLanes="Road2_out_0 Road2_out_1 Road2_out_2" intLanes=":n2_0_0" shape="500.00,0.00 490.40,0.00 500.00,0.00"/>
    <junction id="n3" type="unregulated" x="1000.00" y="500.00" incLanes="Road3_out_0 Road3_out_1 Road3_out_2" intLanes=":n3_0_0" shape="1000.00,500.00 1000.00,490.40 1000.00,500.00"/>
    <junction id="n4" type="unregulated" x="0.00" y="500.00" incLanes="Road4_out_0 Road4_out_1 Road4_out_2" intLanes=":n4_0_0" shape="0.00,500.00 0.00,509.60 0.00,500.00"/>
    <junction id="n5" type="unregulated" x="500.00" y="500.00" incLanes="Road1_0 Road1_1 Road1_2 Road3_0 Road3_1 Road3_2 Road2_0 Road2_1 Road2_2 Road4_0 Road4_1 Road4_2" intLanes=":n5_0_0 :n5_1_0 :n5_1_1 :n5_1_2 :n5_4_0 :n5_5_0 :n5_6_0 :n5_7_0 :n5_7_1 :n5_7_2 :n5_10_0 :n5_11_0 :n5_12_0 :n5_13_0 :n5_13_1 :n5_13_2 :n5_16_0 :n5_17_0 :n5_18_0 :n5_19_0 :n5_19_1 :n5_19_2 :n5_22_0 :n5_23_0" shape="490.40,513.60 509.60,513.60 510.04,511.38 510.60,510.60 511.38,510.04 512.38,509.71 513.60,509.60 513.60,490.40 511.38,489.96 510.60,489.40 510.04,488.62 509.71,487.62 509.60,486.40 490.40,486.40 489.96,488.62 489.40,489.40 488.62,489.96 487.62,490.29 486.40,490.40 486.40,509.60 488.62,510.04 489.40,510.60 489.96,511.38 490.29,512.38"/>

    <connection from="Road1" to="Road4_out" fromLane="0" toLane="0" via=":n5_0_0" dir="r" state="M"/>
    <connection from="Road1" to="Road2_out" fromLane="0" toLane="0" via=":n5_1_0" dir="s" state="M"/>
    <connection from="Road1" to="Road2_out" fromLane="1" toLane="1" via=":n5_1_1" dir="s" state="M"/>
    <connection from="Road1" to="Road2_out" fromLane="2" toLane="2" via=":n5_1_2" dir="s" state="M"/>
    <connection from="Road1" to="Road3_out" fromLane="2" toLane="2" via=":n5_4_0" dir="l" state="M"/>
    <connection from="Road1" to="Road1_out" fromLane="2" toLane="2" via=":n5_5_0" dir="t" state="M"/>
    <connection from="Road1_out" to="Road1" fromLane="2" toLane="2" via=":n1_0_0" dir="t" state="M"/>
    <connection from="Road2" to="Road3_out" fromLane="0" toLane="0" via=":n5_12_0" dir="r" state="M"/>
    <connection from="Road2" to="Road1_out" fromLane="0" toLane="0" via=":n5_13_0" dir="s" state="M"/>
    <connection from="Road2" to="Road1_out" fromLane="1" toLane="1" via=":n5_13_1" dir="s" state="M"/>
    <connection from="Road2" to="Road1_out" fromLane="2" toLane="2" via=":n5_13_2" dir="s" state="M"/>
    <connection from="Road2" to="Road4_out" fromLane="2" toLane="2" via=":n5_16_0" dir="l" state="M"/>
    <connection from="Road2" to="Road2_out" fromLane="2" toLane="2" via=":n5_17_0" dir="t" state="M"/>
    <connection from="Road2_out" to="Road2" fromLane="2" toLane="2" via=":n2_0_0" dir="t" state="M"/>
    <connection from="Road3" to="Road1_out" fromLane="0" toLane="0" via=":n5_6_0" dir="r" state="M"/>
    <connection from="Road3" to="Road4_out" fromLane="0" toLane="0" via=":n5_7_0" dir="s" state="M"/>
    <connection from="Road3" to="Road4_out" fromLane="1" toLane="1" via=":n5_7_1" dir="s" state="M"/>
    <connection from="Road3" to="Road4_out" fromLane="2" toLane="2" via=":n5_7_2" dir="s" state="M"/>
    <connection from="Road3" to="Road2_out" fromLane="2" toLane="2" via=":n5_10_0" dir="l" state="M"/>
    <connection from="Road3" to="Road3_out" fromLane="2" toLane="2" via=":n5_11_0" dir="t" state="M"/>
    <connection from="Road3_out" to="Road3" fromLane="2" toLane="2" via=":n3_0_0" dir="t" state="M"/>
    <connection from="Road4" to="Road2_out" fromLane="0" toLane="0" via=":n5_18_0" dir="r" state="M"/>
    <connection from="Road4" to="Road3_out" fromLane="0" toLane="0" via=":n5_19_0" dir="s" state="M"/>
    <connection from="Road4" to="Road3_out" fromLane="1" toLane="1" via=":n5_19_1" dir="s" state="M"/>
    <connection from="Road4" to="Road3_out" fromLane="2" toLane="2" via=":n5_19_2" dir="s" state="M"/>
    <connection from="Road4" to="Road1_out" fromLane="2" toLane="2" via=":n5_22_0" dir="l" state="M"/>
    <connection from="Road4" to="Road4_out" fromLane="2" toLane="2" via=":n5_23_0" dir="t" state="M"/>
    <connection from="Road4_out" to="Road4" fromLane="2" toLane="2" via=":n4_0_0" dir="t" state="M"/>

    <connection from=":n1_0" to="Road1" fromLane="0" toLane="2" dir="t" state="M"/>
    <connection from=":n2_0" to="Road2" fromLane="0" toLane="2" dir="t" state="M"/>
    <connection from=":n3_0" to="Road3" fromLane="0" toLane="2" dir="t" state="M"/>
    <connection from=":n4_0" to="Road4" fromLane="0" toLane="2" dir="t" state="M"/>
    <connection from=":n5_0" to="Road4_out" fromLane="0" toLane="0" dir="r" state="M"/>
    <connection from=":n5_1" to="Road2_out" fromLane="0" toLane="0" dir="s" state="M"/>
    <connection from=":n5_1" to="Road2_out" fromLane="1" toLane="1" dir="s" state="M"/>
    <connection from=":n5_1" to="Road2_out" fromLane="2" toLane="2" dir="s" state="M"/>
    <connection from=":n5_4" to="Road3_out" fromLane="0" toLane="2" dir="l" state="M"/>
    <connection from=":n5_5" to="Road1_out" fromLane="0" toLane="2" dir="t" state="M"/>
    <connection from=":n5_6" to="Road1_out" fromLane="0" toLane="0" dir="r" state="M"/>
    <connection from=":n5_7" to="Road4_out" fromLane="0" toLane="0" dir="s" state="M"/>
    <connection from=":n5_7" to="Road4_out" fromLane="1" toLane="1" dir="s" state="M"/>
    <connection from=":n5_7" to="Road4_out" fromLane="2" toLane="2" dir="s" state="M"/>
    <connection from=":n5_10" to="Road2_out" fromLane="0" toLane="2" dir="l" state="M"/>
    <connection from=":n5_11" to="Road3_out" fromLane="0" toLane="2" dir="t" state="M"/>
    <connection from=":n5_12" to="Road3_out" fromLane="0" toLane="0" dir="r" state="M"/>
    <connection from=":n5_13" to="Road1_out" fromLane="0" toLane="0" dir="s" state="M"/>
    <connection from=":n5_13" to="Road1_out" fromLane="1" toLane="1" dir="s" state="M"/>
    <connection from=":n5_13" to="Road1_out" fromLane="2" toLane="2" dir="s" state="M"/>
    <connection from=":n5_16" to="Road4_out" fromLane="0" toLane="2" dir="l" state="M"/>
    <connection from=":n5_17" to="Road2_out" fromLane="0" toLane="2" dir="t" state="M"/>
    <connection from=":n5_18" to="Road2_out" fromLane="0" toLane="0" dir="r" state="M"/>
    <connection from=":n5_19" to="Road3_out" fromLane="0" toLane="0" dir="s" state="M"/>
    <connection from=":n5_19" to="Road3_out" fromLane="1" toLane="1" dir="s" state="M"/>
    <connection from=":n5_19" to="Road3_out" fromLane="2" toLane="2" dir="s" state="M"/>
    <connection from=":n5_22" to="Road1_out" fromLane="0" toLane="2" dir="l" state="M"/>
    <connection from=":n5_23" to="Road4_out" fromLane="0" toLane="2" dir="t" state="M"/>

</net>
