<nodes>
    <node id="n1" x="0" y="200" type="unregulated"/>
    <node id="n2" x="0" y="-200" type="unregulated"/>
    <node id="n3" x="200" y="0" type="unregulated"/>
    <node id="n4" x="-200" y="0" type="unregulated"/>
    <node id="n5" x="0" y="0" type="unregulated"/> <!-- Middle -->
</nodes>