<routes>
    <vType accel="1.0" decel="5.0" id="Car" jmIgnoreKeepClearTime="100.0" maxSpeed="16" minGap="4" length="3" vClass="passenger"/>

        
    <!--emergencyDecel="0.0"-->
    <route id="route12" edges="Road1 Road2_out"/> <!-- Geradeaus-->
    <route id="route13" edges="Road1 Road3_out"/>
    <route id="route14" edges="Road1 Road4_out"/>

    <route id="route21" edges="Road2 Road1_out"/> <!-- Geradeaus-->
    <route id="route23" edges="Road2 Road3_out"/>
    <route id="route24" edges="Road2 Road4_out"/> 

    <route id="route31" edges="Road3 Road1_out"/> 
    <route id="route32" edges="Road3 Road2_out"/> 
    <route id="route34" edges="Road3 Road4_out"/> <!-- Geradeaus-->

    <route id="route41" edges="Road4 Road1_out"/>
    <route id="route42" edges="Road4 Road2_out"/>
    <route id="route43" edges="Road4 Road3_out"/> <!-- Geradeaus-->



    <vehicle depart ="2" departLane ="2" id="car0" route="route34" type="Car"/>
<vehicle depart ="3" departLane ="1" id="car1" route="route12" type="Car"/>
<vehicle depart ="4" departLane ="1" id="car2" route="route34" type="Car"/>
<vehicle depart ="9" departLane ="1" id="car3" route="route21" type="Car"/>
<vehicle depart ="10" departLane ="0" id="car4" route="route12" type="Car"/>
<vehicle depart ="10" departLane ="1" id="car5" route="route12" type="Car"/>
<vehicle depart ="14" departLane ="2" id="car6" route="route43" type="Car"/>
<vehicle depart ="16" departLane ="2" id="car7" route="route34" type="Car"/>
<vehicle depart ="17" departLane ="1" id="car8" route="route43" type="Car"/>
<vehicle depart ="17" departLane ="2" id="car9" route="route34" type="Car"/>
<vehicle depart ="18" departLane ="2" id="car10" route="route12" type="Car"/>
<vehicle depart ="20" departLane ="1" id="car11" route="route34" type="Car"/>
<vehicle depart ="20" departLane ="2" id="car12" route="route12" type="Car"/>
<vehicle depart ="23" departLane ="1" id="car13" route="route12" type="Car"/>
<vehicle depart ="23" departLane ="2" id="car14" route="route21" type="Car"/>
<vehicle depart ="25" departLane ="2" id="car15" route="route34" type="Car"/>
<vehicle depart ="25" departLane ="2" id="car16" route="route12" type="Car"/>
<vehicle depart ="26" departLane ="1" id="car17" route="route43" type="Car"/>
<vehicle depart ="26" departLane ="2" id="car18" route="route43" type="Car"/>
<vehicle depart ="30" departLane ="0" id="car19" route="route43" type="Car"/>
<vehicle depart ="31" departLane ="0" id="car20" route="route43" type="Car"/>
<vehicle depart ="31" departLane ="1" id="car21" route="route21" type="Car"/>
<vehicle depart ="35" departLane ="1" id="car22" route="route43" type="Car"/>
<vehicle depart ="36" departLane ="2" id="car23" route="route34" type="Car"/>
<vehicle depart ="37" departLane ="0" id="car24" route="route21" type="Car"/>
<vehicle depart ="38" departLane ="1" id="car25" route="route43" type="Car"/>
<vehicle depart ="38" departLane ="1" id="car26" route="route21" type="Car"/>
<vehicle depart ="42" departLane ="1" id="car27" route="route34" type="Car"/>
<vehicle depart ="42" departLane ="1" id="car28" route="route34" type="Car"/>
<vehicle depart ="43" departLane ="2" id="car29" route="route43" type="Car"/>
<vehicle depart ="43" departLane ="2" id="car30" route="route43" type="Car"/>
<vehicle depart ="45" departLane ="0" id="car31" route="route12" type="Car"/>
<vehicle depart ="51" departLane ="0" id="car32" route="route12" type="Car"/>
<vehicle depart ="55" departLane ="1" id="car33" route="route34" type="Car"/>
<vehicle depart ="56" departLane ="0" id="car34" route="route34" type="Car"/>
<vehicle depart ="58" departLane ="0" id="car35" route="route21" type="Car"/>
<vehicle depart ="58" departLane ="2" id="car36" route="route21" type="Car"/>
<vehicle depart ="59" departLane ="1" id="car37" route="route12" type="Car"/>
<vehicle depart ="60" departLane ="1" id="car38" route="route21" type="Car"/>
<vehicle depart ="62" departLane ="1" id="car39" route="route12" type="Car"/>
<vehicle depart ="62" departLane ="2" id="car40" route="route12" type="Car"/>
<vehicle depart ="65" departLane ="1" id="car41" route="route12" type="Car"/>
<vehicle depart ="65" departLane ="2" id="car42" route="route43" type="Car"/>
<vehicle depart ="70" departLane ="1" id="car43" route="route34" type="Car"/>
<vehicle depart ="70" departLane ="1" id="car44" route="route21" type="Car"/>
<vehicle depart ="71" departLane ="0" id="car45" route="route43" type="Car"/>
<vehicle depart ="72" departLane ="0" id="car46" route="route43" type="Car"/>
<vehicle depart ="73" departLane ="0" id="car47" route="route34" type="Car"/>
<vehicle depart ="73" departLane ="2" id="car48" route="route34" type="Car"/>
<vehicle depart ="76" departLane ="2" id="car49" route="route43" type="Car"/>
<vehicle depart ="81" departLane ="0" id="car50" route="route43" type="Car"/>
<vehicle depart ="81" departLane ="2" id="car51" route="route43" type="Car"/>
<vehicle depart ="84" departLane ="0" id="car52" route="route43" type="Car"/>
<vehicle depart ="85" departLane ="2" id="car53" route="route34" type="Car"/>
<vehicle depart ="86" departLane ="0" id="car54" route="route12" type="Car"/>
<vehicle depart ="86" departLane ="2" id="car55" route="route21" type="Car"/>
<vehicle depart ="91" departLane ="0" id="car56" route="route43" type="Car"/>
<vehicle depart ="93" departLane ="0" id="car57" route="route34" type="Car"/>
<vehicle depart ="93" departLane ="0" id="car58" route="route43" type="Car"/>
<vehicle depart ="94" departLane ="1" id="car59" route="route12" type="Car"/>
<vehicle depart ="95" departLane ="2" id="car60" route="route43" type="Car"/>
<vehicle depart ="96" departLane ="1" id="car61" route="route43" type="Car"/>
<vehicle depart ="96" departLane ="1" id="car62" route="route34" type="Car"/>
<vehicle depart ="100" departLane ="0" id="car63" route="route12" type="Car"/>
<vehicle depart ="100" departLane ="2" id="car64" route="route12" type="Car"/>
<vehicle depart ="101" departLane ="2" id="car65" route="route21" type="Car"/>
<vehicle depart ="102" departLane ="0" id="car66" route="route12" type="Car"/>
<vehicle depart ="107" departLane ="0" id="car67" route="route34" type="Car"/>
<vehicle depart ="107" departLane ="0" id="car68" route="route43" type="Car"/>
<vehicle depart ="107" departLane ="2" id="car69" route="route43" type="Car"/>
<vehicle depart ="108" departLane ="0" id="car70" route="route21" type="Car"/>
<vehicle depart ="108" departLane ="0" id="car71" route="route12" type="Car"/>
<vehicle depart ="109" departLane ="2" id="car72" route="route12" type="Car"/>
<vehicle depart ="110" departLane ="1" id="car73" route="route43" type="Car"/>
<vehicle depart ="110" departLane ="1" id="car74" route="route21" type="Car"/>
<vehicle depart ="110" departLane ="2" id="car75" route="route12" type="Car"/>
<vehicle depart ="112" departLane ="1" id="car76" route="route12" type="Car"/>
<vehicle depart ="113" departLane ="1" id="car77" route="route12" type="Car"/>
<vehicle depart ="117" departLane ="0" id="car78" route="route12" type="Car"/>
<vehicle depart ="117" departLane ="1" id="car79" route="route12" type="Car"/>
<vehicle depart ="119" departLane ="0" id="car80" route="route43" type="Car"/>
<vehicle depart ="120" departLane ="2" id="car81" route="route34" type="Car"/>
<vehicle depart ="121" departLane ="1" id="car82" route="route34" type="Car"/>
<vehicle depart ="122" departLane ="1" id="car83" route="route12" type="Car"/>
<vehicle depart ="122" departLane ="1" id="car84" route="route12" type="Car"/>
<vehicle depart ="123" departLane ="0" id="car85" route="route12" type="Car"/>
<vehicle depart ="123" departLane ="2" id="car86" route="route34" type="Car"/>
<vehicle depart ="124" departLane ="1" id="car87" route="route34" type="Car"/>
<vehicle depart ="127" departLane ="2" id="car88" route="route12" type="Car"/>
<vehicle depart ="129" departLane ="0" id="car89" route="route43" type="Car"/>
<vehicle depart ="129" departLane ="1" id="car90" route="route34" type="Car"/>
<vehicle depart ="129" departLane ="2" id="car91" route="route43" type="Car"/>
<vehicle depart ="130" departLane ="1" id="car92" route="route21" type="Car"/>
<vehicle depart ="131" departLane ="0" id="car93" route="route12" type="Car"/>
<vehicle depart ="132" departLane ="2" id="car94" route="route12" type="Car"/>
<vehicle depart ="133" departLane ="1" id="car95" route="route12" type="Car"/>
<vehicle depart ="134" departLane ="0" id="car96" route="route21" type="Car"/>
<vehicle depart ="137" departLane ="1" id="car97" route="route12" type="Car"/>
<vehicle depart ="137" departLane ="2" id="car98" route="route34" type="Car"/>
<vehicle depart ="137" departLane ="2" id="car99" route="route34" type="Car"/>
<vehicle depart ="138" departLane ="1" id="car100" route="route43" type="Car"/>
<vehicle depart ="139" departLane ="0" id="car101" route="route43" type="Car"/>
<vehicle depart ="139" departLane ="0" id="car102" route="route21" type="Car"/>
<vehicle depart ="140" departLane ="1" id="car103" route="route34" type="Car"/>
<vehicle depart ="141" departLane ="0" id="car104" route="route12" type="Car"/>
<vehicle depart ="141" departLane ="1" id="car105" route="route43" type="Car"/>
<vehicle depart ="141" departLane ="2" id="car106" route="route21" type="Car"/>
<vehicle depart ="142" departLane ="0" id="car107" route="route12" type="Car"/>
<vehicle depart ="142" departLane ="1" id="car108" route="route21" type="Car"/>
<vehicle depart ="142" departLane ="2" id="car109" route="route12" type="Car"/>
<vehicle depart ="143" departLane ="0" id="car110" route="route12" type="Car"/>
<vehicle depart ="144" departLane ="1" id="car111" route="route43" type="Car"/>
<vehicle depart ="149" departLane ="1" id="car112" route="route34" type="Car"/>
<vehicle depart ="150" departLane ="0" id="car113" route="route43" type="Car"/>
<vehicle depart ="150" departLane ="1" id="car114" route="route12" type="Car"/>
<vehicle depart ="151" departLane ="2" id="car115" route="route34" type="Car"/>
<vehicle depart ="154" departLane ="0" id="car116" route="route43" type="Car"/>
<vehicle depart ="156" departLane ="1" id="car117" route="route12" type="Car"/>
<vehicle depart ="156" departLane ="2" id="car118" route="route34" type="Car"/>
<vehicle depart ="156" departLane ="2" id="car119" route="route43" type="Car"/>
<vehicle depart ="161" departLane ="2" id="car120" route="route34" type="Car"/>
<vehicle depart ="166" departLane ="2" id="car121" route="route43" type="Car"/>
<vehicle depart ="167" departLane ="1" id="car122" route="route34" type="Car"/>
<vehicle depart ="167" departLane ="2" id="car123" route="route43" type="Car"/>
<vehicle depart ="168" departLane ="2" id="car124" route="route43" type="Car"/>
<vehicle depart ="170" departLane ="0" id="car125" route="route43" type="Car"/>
<vehicle depart ="173" departLane ="0" id="car126" route="route12" type="Car"/>
<vehicle depart ="173" departLane ="1" id="car127" route="route12" type="Car"/>
<vehicle depart ="174" departLane ="0" id="car128" route="route34" type="Car"/>
<vehicle depart ="178" departLane ="1" id="car129" route="route43" type="Car"/>
<vehicle depart ="179" departLane ="0" id="car130" route="route12" type="Car"/>
<vehicle depart ="179" departLane ="2" id="car131" route="route12" type="Car"/>
<vehicle depart ="180" departLane ="2" id="car132" route="route43" type="Car"/>
<vehicle depart ="181" departLane ="1" id="car133" route="route21" type="Car"/>
<vehicle depart ="181" departLane ="2" id="car134" route="route12" type="Car"/>
<vehicle depart ="182" departLane ="1" id="car135" route="route12" type="Car"/>
<vehicle depart ="183" departLane ="2" id="car136" route="route21" type="Car"/>
<vehicle depart ="188" departLane ="0" id="car137" route="route12" type="Car"/>
<vehicle depart ="188" departLane ="1" id="car138" route="route34" type="Car"/>
<vehicle depart ="189" departLane ="1" id="car139" route="route43" type="Car"/>
<vehicle depart ="190" departLane ="1" id="car140" route="route43" type="Car"/>
<vehicle depart ="190" departLane ="2" id="car141" route="route34" type="Car"/>
<vehicle depart ="191" departLane ="0" id="car142" route="route12" type="Car"/>
<vehicle depart ="195" departLane ="0" id="car143" route="route21" type="Car"/>
<vehicle depart ="197" departLane ="1" id="car144" route="route43" type="Car"/>
<vehicle depart ="197" departLane ="2" id="car145" route="route43" type="Car"/>
<vehicle depart ="200" departLane ="0" id="car146" route="route34" type="Car"/>
<vehicle depart ="200" departLane ="1" id="car147" route="route12" type="Car"/>
<vehicle depart ="201" departLane ="1" id="car148" route="route43" type="Car"/>
<vehicle depart ="201" departLane ="1" id="car149" route="route34" type="Car"/>
<vehicle depart ="202" departLane ="1" id="car150" route="route12" type="Car"/>
<vehicle depart ="203" departLane ="1" id="car151" route="route34" type="Car"/>
<vehicle depart ="204" departLane ="1" id="car152" route="route12" type="Car"/>
<vehicle depart ="205" departLane ="1" id="car153" route="route12" type="Car"/>
<vehicle depart ="206" departLane ="0" id="car154" route="route21" type="Car"/>
<vehicle depart ="207" departLane ="2" id="car155" route="route21" type="Car"/>
<vehicle depart ="208" departLane ="0" id="car156" route="route43" type="Car"/>
<vehicle depart ="208" departLane ="1" id="car157" route="route43" type="Car"/>
<vehicle depart ="208" departLane ="2" id="car158" route="route21" type="Car"/>
<vehicle depart ="210" departLane ="1" id="car159" route="route12" type="Car"/>
<vehicle depart ="211" departLane ="1" id="car160" route="route21" type="Car"/>
<vehicle depart ="212" departLane ="2" id="car161" route="route43" type="Car"/>
<vehicle depart ="213" departLane ="0" id="car162" route="route12" type="Car"/>
<vehicle depart ="214" departLane ="0" id="car163" route="route34" type="Car"/>
<vehicle depart ="215" departLane ="1" id="car164" route="route43" type="Car"/>
<vehicle depart ="215" departLane ="2" id="car165" route="route21" type="Car"/>
<vehicle depart ="217" departLane ="2" id="car166" route="route34" type="Car"/>
<vehicle depart ="221" departLane ="0" id="car167" route="route21" type="Car"/>
<vehicle depart ="222" departLane ="1" id="car168" route="route34" type="Car"/>
<vehicle depart ="222" departLane ="2" id="car169" route="route12" type="Car"/>
<vehicle depart ="223" departLane ="1" id="car170" route="route12" type="Car"/>
<vehicle depart ="227" departLane ="2" id="car171" route="route43" type="Car"/>
<vehicle depart ="230" departLane ="2" id="car172" route="route43" type="Car"/>
<vehicle depart ="230" departLane ="2" id="car173" route="route34" type="Car"/>
<vehicle depart ="231" departLane ="2" id="car174" route="route34" type="Car"/>
<vehicle depart ="231" departLane ="2" id="car175" route="route12" type="Car"/>
<vehicle depart ="235" departLane ="0" id="car176" route="route12" type="Car"/>
<vehicle depart ="237" departLane ="1" id="car177" route="route43" type="Car"/>
<vehicle depart ="238" departLane ="2" id="car178" route="route12" type="Car"/>
<vehicle depart ="240" departLane ="1" id="car179" route="route21" type="Car"/>
<vehicle depart ="241" departLane ="1" id="car180" route="route34" type="Car"/>
<vehicle depart ="242" departLane ="2" id="car181" route="route34" type="Car"/>
<vehicle depart ="243" departLane ="1" id="car182" route="route21" type="Car"/>
<vehicle depart ="244" departLane ="1" id="car183" route="route21" type="Car"/>
<vehicle depart ="245" departLane ="0" id="car184" route="route34" type="Car"/>
<vehicle depart ="245" departLane ="2" id="car185" route="route43" type="Car"/>
<vehicle depart ="246" departLane ="0" id="car186" route="route12" type="Car"/>
<vehicle depart ="247" departLane ="0" id="car187" route="route43" type="Car"/>
<vehicle depart ="247" departLane ="1" id="car188" route="route12" type="Car"/>
<vehicle depart ="247" departLane ="1" id="car189" route="route43" type="Car"/>
<vehicle depart ="247" departLane ="1" id="car190" route="route12" type="Car"/>
<vehicle depart ="251" departLane ="0" id="car191" route="route34" type="Car"/>
<vehicle depart ="251" departLane ="2" id="car192" route="route21" type="Car"/>
<vehicle depart ="252" departLane ="1" id="car193" route="route34" type="Car"/>
<vehicle depart ="257" departLane ="2" id="car194" route="route34" type="Car"/>
<vehicle depart ="258" departLane ="1" id="car195" route="route12" type="Car"/>
<vehicle depart ="258" departLane ="2" id="car196" route="route34" type="Car"/>
<vehicle depart ="261" departLane ="0" id="car197" route="route34" type="Car"/>
<vehicle depart ="261" departLane ="0" id="car198" route="route21" type="Car"/>
<vehicle depart ="262" departLane ="0" id="car199" route="route21" type="Car"/>
<vehicle depart ="262" departLane ="1" id="car200" route="route21" type="Car"/>
<vehicle depart ="263" departLane ="0" id="car201" route="route21" type="Car"/>
<vehicle depart ="263" departLane ="0" id="car202" route="route43" type="Car"/>
<vehicle depart ="265" departLane ="0" id="car203" route="route21" type="Car"/>
<vehicle depart ="265" departLane ="1" id="car204" route="route43" type="Car"/>
<vehicle depart ="266" departLane ="0" id="car205" route="route43" type="Car"/>
<vehicle depart ="266" departLane ="0" id="car206" route="route12" type="Car"/>
<vehicle depart ="267" departLane ="2" id="car207" route="route43" type="Car"/>
<vehicle depart ="268" departLane ="0" id="car208" route="route12" type="Car"/>
<vehicle depart ="270" departLane ="0" id="car209" route="route12" type="Car"/>
<vehicle depart ="271" departLane ="1" id="car210" route="route12" type="Car"/>
<vehicle depart ="272" departLane ="1" id="car211" route="route34" type="Car"/>
<vehicle depart ="272" departLane ="2" id="car212" route="route34" type="Car"/>
<vehicle depart ="274" departLane ="1" id="car213" route="route12" type="Car"/>
<vehicle depart ="277" departLane ="1" id="car214" route="route21" type="Car"/>
<vehicle depart ="279" departLane ="1" id="car215" route="route21" type="Car"/>
<vehicle depart ="283" departLane ="0" id="car216" route="route43" type="Car"/>
<vehicle depart ="285" departLane ="1" id="car217" route="route34" type="Car"/>
<vehicle depart ="286" departLane ="2" id="car218" route="route34" type="Car"/>
<vehicle depart ="287" departLane ="1" id="car219" route="route21" type="Car"/>
<vehicle depart ="288" departLane ="2" id="car220" route="route34" type="Car"/>
<vehicle depart ="291" departLane ="0" id="car221" route="route21" type="Car"/>
<vehicle depart ="291" departLane ="2" id="car222" route="route12" type="Car"/>
<vehicle depart ="292" departLane ="0" id="car223" route="route43" type="Car"/>
<vehicle depart ="292" departLane ="1" id="car224" route="route21" type="Car"/>
<vehicle depart ="292" departLane ="2" id="car225" route="route43" type="Car"/>
<vehicle depart ="293" departLane ="0" id="car226" route="route21" type="Car"/>
<vehicle depart ="294" departLane ="0" id="car227" route="route43" type="Car"/>
<vehicle depart ="299" departLane ="0" id="car228" route="route12" type="Car"/>
<vehicle depart ="300" departLane ="0" id="car229" route="route12" type="Car"/>
<vehicle depart ="303" departLane ="1" id="car230" route="route34" type="Car"/>
<vehicle depart ="305" departLane ="1" id="car231" route="route12" type="Car"/>
<vehicle depart ="307" departLane ="0" id="car232" route="route21" type="Car"/>
<vehicle depart ="308" departLane ="0" id="car233" route="route12" type="Car"/>
<vehicle depart ="312" departLane ="2" id="car234" route="route34" type="Car"/>
<vehicle depart ="314" departLane ="1" id="car235" route="route21" type="Car"/>
<vehicle depart ="314" departLane ="1" id="car236" route="route34" type="Car"/>
<vehicle depart ="316" departLane ="1" id="car237" route="route43" type="Car"/>
<vehicle depart ="317" departLane ="2" id="car238" route="route21" type="Car"/>
<vehicle depart ="320" departLane ="0" id="car239" route="route34" type="Car"/>
<vehicle depart ="325" departLane ="0" id="car240" route="route34" type="Car"/>
<vehicle depart ="329" departLane ="0" id="car241" route="route34" type="Car"/>
<vehicle depart ="330" departLane ="0" id="car242" route="route34" type="Car"/>
<vehicle depart ="330" departLane ="2" id="car243" route="route34" type="Car"/>
<vehicle depart ="331" departLane ="2" id="car244" route="route12" type="Car"/>
<vehicle depart ="332" departLane ="0" id="car245" route="route12" type="Car"/>
<vehicle depart ="332" departLane ="1" id="car246" route="route12" type="Car"/>
<vehicle depart ="335" departLane ="1" id="car247" route="route34" type="Car"/>
<vehicle depart ="335" departLane ="2" id="car248" route="route34" type="Car"/>
<vehicle depart ="336" departLane ="1" id="car249" route="route43" type="Car"/>
<vehicle depart ="337" departLane ="1" id="car250" route="route34" type="Car"/>
<vehicle depart ="337" departLane ="2" id="car251" route="route12" type="Car"/>
<vehicle depart ="339" departLane ="0" id="car252" route="route12" type="Car"/>
<vehicle depart ="339" departLane ="1" id="car253" route="route12" type="Car"/>
<vehicle depart ="339" departLane ="2" id="car254" route="route34" type="Car"/>
<vehicle depart ="341" departLane ="2" id="car255" route="route21" type="Car"/>
<vehicle depart ="341" departLane ="2" id="car256" route="route12" type="Car"/>
<vehicle depart ="342" departLane ="0" id="car257" route="route12" type="Car"/>
<vehicle depart ="343" departLane ="0" id="car258" route="route21" type="Car"/>
<vehicle depart ="345" departLane ="1" id="car259" route="route21" type="Car"/>
<vehicle depart ="349" departLane ="2" id="car260" route="route43" type="Car"/>
<vehicle depart ="350" departLane ="0" id="car261" route="route43" type="Car"/>
<vehicle depart ="351" departLane ="1" id="car262" route="route21" type="Car"/>
<vehicle depart ="351" departLane ="2" id="car263" route="route12" type="Car"/>
<vehicle depart ="354" departLane ="2" id="car264" route="route43" type="Car"/>
<vehicle depart ="355" departLane ="1" id="car265" route="route43" type="Car"/>
<vehicle depart ="356" departLane ="1" id="car266" route="route21" type="Car"/>
<vehicle depart ="357" departLane ="1" id="car267" route="route12" type="Car"/>
<vehicle depart ="358" departLane ="0" id="car268" route="route21" type="Car"/>
<vehicle depart ="359" departLane ="0" id="car269" route="route43" type="Car"/>
<vehicle depart ="359" departLane ="1" id="car270" route="route43" type="Car"/>
<vehicle depart ="360" departLane ="2" id="car271" route="route21" type="Car"/>
<vehicle depart ="365" departLane ="1" id="car272" route="route21" type="Car"/>
<vehicle depart ="366" departLane ="1" id="car273" route="route12" type="Car"/>
<vehicle depart ="367" departLane ="1" id="car274" route="route34" type="Car"/>
<vehicle depart ="367" departLane ="1" id="car275" route="route21" type="Car"/>
<vehicle depart ="367" departLane ="2" id="car276" route="route34" type="Car"/>
<vehicle depart ="368" departLane ="1" id="car277" route="route21" type="Car"/>
<vehicle depart ="370" departLane ="1" id="car278" route="route43" type="Car"/>
<vehicle depart ="372" departLane ="0" id="car279" route="route34" type="Car"/>
<vehicle depart ="373" departLane ="0" id="car280" route="route12" type="Car"/>
<vehicle depart ="380" departLane ="0" id="car281" route="route34" type="Car"/>
<vehicle depart ="380" departLane ="1" id="car282" route="route21" type="Car"/>
<vehicle depart ="380" departLane ="1" id="car283" route="route34" type="Car"/>
<vehicle depart ="380" departLane ="2" id="car284" route="route43" type="Car"/>
<vehicle depart ="384" departLane ="0" id="car285" route="route21" type="Car"/>
<vehicle depart ="384" departLane ="0" id="car286" route="route12" type="Car"/>
<vehicle depart ="384" departLane ="0" id="car287" route="route12" type="Car"/>
<vehicle depart ="384" departLane ="1" id="car288" route="route21" type="Car"/>
<vehicle depart ="384" departLane ="1" id="car289" route="route12" type="Car"/>
<vehicle depart ="385" departLane ="1" id="car290" route="route34" type="Car"/>
<vehicle depart ="387" departLane ="0" id="car291" route="route43" type="Car"/>
<vehicle depart ="390" departLane ="0" id="car292" route="route12" type="Car"/>
<vehicle depart ="396" departLane ="2" id="car293" route="route21" type="Car"/>
<vehicle depart ="397" departLane ="0" id="car294" route="route43" type="Car"/>
<vehicle depart ="398" departLane ="0" id="car295" route="route34" type="Car"/>
<vehicle depart ="398" departLane ="0" id="car296" route="route34" type="Car"/>
<vehicle depart ="398" departLane ="2" id="car297" route="route21" type="Car"/>
<vehicle depart ="399" departLane ="0" id="car298" route="route34" type="Car"/>
<vehicle depart ="399" departLane ="1" id="car299" route="route34" type="Car"/>

</routes>