<routes>
    <vType accel="1.0" decel="5.0" id="Car" jmIgnoreKeepClearTime="100.0" maxSpeed="16" minGap="4" length="3" vClass="passenger"/>

        
    <!--emergencyDecel="0.0"-->
    <route id="route12" edges="Road1 Road2_out"/> <!-- Geradeaus-->
    <route id="route13" edges="Road1 Road3_out"/>
    <route id="route14" edges="Road1 Road4_out"/>

    <route id="route21" edges="Road2 Road1_out"/> <!-- Geradeaus-->
    <route id="route23" edges="Road2 Road3_out"/>
    <route id="route24" edges="Road2 Road4_out"/> 

    <route id="route31" edges="Road3 Road1_out"/> 
    <route id="route32" edges="Road3 Road2_out"/> 
    <route id="route34" edges="Road3 Road4_out"/> <!-- Geradeaus-->

    <route id="route41" edges="Road4 Road1_out"/>
    <route id="route42" edges="Road4 Road2_out"/>
    <route id="route43" edges="Road4 Road3_out"/> <!-- Geradeaus-->



    <vehicle depart ="0" departLane ="0" departSpeed="16" id="car0" route="route43" type="Car"/>
<vehicle depart ="0" departLane ="1" departSpeed="16" id="car1" route="route21" type="Car"/>
<vehicle depart ="2" departLane ="1" departSpeed="16" id="car2" route="route34" type="Car"/>
<vehicle depart ="3" departLane ="2" departSpeed="16" id="car3" route="route43" type="Car"/>
<vehicle depart ="3" departLane ="2" departSpeed="16" id="car4" route="route12" type="Car"/>
<vehicle depart ="3" departLane ="2" departSpeed="16" id="car5" route="route43" type="Car"/>
<vehicle depart ="4" departLane ="1" departSpeed="16" id="car6" route="route21" type="Car"/>
<vehicle depart ="4" departLane ="2" departSpeed="16" id="car7" route="route21" type="Car"/>
<vehicle depart ="5" departLane ="0" departSpeed="16" id="car8" route="route12" type="Car"/>
<vehicle depart ="5" departLane ="1" departSpeed="16" id="car9" route="route34" type="Car"/>
<vehicle depart ="5" departLane ="2" departSpeed="16" id="car10" route="route12" type="Car"/>
<vehicle depart ="7" departLane ="1" departSpeed="16" id="car11" route="route12" type="Car"/>
<vehicle depart ="8" departLane ="0" departSpeed="16" id="car12" route="route43" type="Car"/>
<vehicle depart ="9" departLane ="1" departSpeed="16" id="car13" route="route21" type="Car"/>
<vehicle depart ="9" departLane ="1" departSpeed="16" id="car14" route="route34" type="Car"/>
<vehicle depart ="9" departLane ="2" departSpeed="16" id="car15" route="route12" type="Car"/>
<vehicle depart ="9" departLane ="2" departSpeed="16" id="car16" route="route21" type="Car"/>
<vehicle depart ="11" departLane ="1" departSpeed="16" id="car17" route="route43" type="Car"/>
<vehicle depart ="12" departLane ="0" departSpeed="16" id="car18" route="route12" type="Car"/>
<vehicle depart ="12" departLane ="1" departSpeed="16" id="car19" route="route43" type="Car"/>
<vehicle depart ="13" departLane ="0" departSpeed="16" id="car20" route="route34" type="Car"/>
<vehicle depart ="13" departLane ="0" departSpeed="16" id="car21" route="route21" type="Car"/>
<vehicle depart ="13" departLane ="0" departSpeed="16" id="car22" route="route34" type="Car"/>
<vehicle depart ="13" departLane ="1" departSpeed="16" id="car23" route="route21" type="Car"/>
<vehicle depart ="14" departLane ="0" departSpeed="16" id="car24" route="route21" type="Car"/>
<vehicle depart ="15" departLane ="0" departSpeed="16" id="car25" route="route34" type="Car"/>
<vehicle depart ="15" departLane ="0" departSpeed="16" id="car26" route="route21" type="Car"/>
<vehicle depart ="15" departLane ="1" departSpeed="16" id="car27" route="route43" type="Car"/>
<vehicle depart ="15" departLane ="2" departSpeed="16" id="car28" route="route12" type="Car"/>
<vehicle depart ="16" departLane ="0" departSpeed="16" id="car29" route="route12" type="Car"/>
<vehicle depart ="16" departLane ="1" departSpeed="16" id="car30" route="route43" type="Car"/>
<vehicle depart ="16" departLane ="2" departSpeed="16" id="car31" route="route12" type="Car"/>
<vehicle depart ="17" departLane ="0" departSpeed="16" id="car32" route="route43" type="Car"/>
<vehicle depart ="17" departLane ="0" departSpeed="16" id="car33" route="route43" type="Car"/>
<vehicle depart ="17" departLane ="1" departSpeed="16" id="car34" route="route21" type="Car"/>
<vehicle depart ="18" departLane ="0" departSpeed="16" id="car35" route="route12" type="Car"/>
<vehicle depart ="18" departLane ="1" departSpeed="16" id="car36" route="route21" type="Car"/>
<vehicle depart ="19" departLane ="1" departSpeed="16" id="car37" route="route43" type="Car"/>
<vehicle depart ="20" departLane ="2" departSpeed="16" id="car38" route="route21" type="Car"/>
<vehicle depart ="21" departLane ="0" departSpeed="16" id="car39" route="route43" type="Car"/>
<vehicle depart ="21" departLane ="0" departSpeed="16" id="car40" route="route21" type="Car"/>
<vehicle depart ="21" departLane ="1" departSpeed="16" id="car41" route="route43" type="Car"/>
<vehicle depart ="22" departLane ="0" departSpeed="16" id="car42" route="route43" type="Car"/>
<vehicle depart ="22" departLane ="0" departSpeed="16" id="car43" route="route34" type="Car"/>
<vehicle depart ="22" departLane ="0" departSpeed="16" id="car44" route="route43" type="Car"/>
<vehicle depart ="23" departLane ="0" departSpeed="16" id="car45" route="route43" type="Car"/>
<vehicle depart ="24" departLane ="1" departSpeed="16" id="car46" route="route21" type="Car"/>
<vehicle depart ="24" departLane ="1" departSpeed="16" id="car47" route="route34" type="Car"/>
<vehicle depart ="24" departLane ="1" departSpeed="16" id="car48" route="route12" type="Car"/>
<vehicle depart ="25" departLane ="0" departSpeed="16" id="car49" route="route43" type="Car"/>
<vehicle depart ="25" departLane ="0" departSpeed="16" id="car50" route="route43" type="Car"/>
<vehicle depart ="26" departLane ="2" departSpeed="16" id="car51" route="route12" type="Car"/>
<vehicle depart ="27" departLane ="0" departSpeed="16" id="car52" route="route34" type="Car"/>
<vehicle depart ="28" departLane ="1" departSpeed="16" id="car53" route="route43" type="Car"/>
<vehicle depart ="29" departLane ="2" departSpeed="16" id="car54" route="route34" type="Car"/>
<vehicle depart ="30" departLane ="2" departSpeed="16" id="car55" route="route34" type="Car"/>
<vehicle depart ="34" departLane ="1" departSpeed="16" id="car56" route="route12" type="Car"/>
<vehicle depart ="34" departLane ="2" departSpeed="16" id="car57" route="route34" type="Car"/>
<vehicle depart ="34" departLane ="2" departSpeed="16" id="car58" route="route21" type="Car"/>
<vehicle depart ="35" departLane ="2" departSpeed="16" id="car59" route="route21" type="Car"/>
<vehicle depart ="35" departLane ="2" departSpeed="16" id="car60" route="route43" type="Car"/>
<vehicle depart ="36" departLane ="0" departSpeed="16" id="car61" route="route12" type="Car"/>
<vehicle depart ="37" departLane ="2" departSpeed="16" id="car62" route="route43" type="Car"/>
<vehicle depart ="38" departLane ="0" departSpeed="16" id="car63" route="route34" type="Car"/>
<vehicle depart ="38" departLane ="1" departSpeed="16" id="car64" route="route43" type="Car"/>
<vehicle depart ="38" departLane ="2" departSpeed="16" id="car65" route="route21" type="Car"/>
<vehicle depart ="39" departLane ="0" departSpeed="16" id="car66" route="route34" type="Car"/>
<vehicle depart ="39" departLane ="1" departSpeed="16" id="car67" route="route43" type="Car"/>
<vehicle depart ="39" departLane ="1" departSpeed="16" id="car68" route="route21" type="Car"/>
<vehicle depart ="40" departLane ="2" departSpeed="16" id="car69" route="route21" type="Car"/>
<vehicle depart ="42" departLane ="1" departSpeed="16" id="car70" route="route12" type="Car"/>
<vehicle depart ="43" departLane ="0" departSpeed="16" id="car71" route="route21" type="Car"/>
<vehicle depart ="43" departLane ="1" departSpeed="16" id="car72" route="route34" type="Car"/>
<vehicle depart ="43" departLane ="1" departSpeed="16" id="car73" route="route34" type="Car"/>
<vehicle depart ="45" departLane ="0" departSpeed="16" id="car74" route="route43" type="Car"/>
<vehicle depart ="45" departLane ="1" departSpeed="16" id="car75" route="route43" type="Car"/>
<vehicle depart ="45" departLane ="2" departSpeed="16" id="car76" route="route21" type="Car"/>
<vehicle depart ="45" departLane ="2" departSpeed="16" id="car77" route="route12" type="Car"/>
<vehicle depart ="45" departLane ="2" departSpeed="16" id="car78" route="route43" type="Car"/>
<vehicle depart ="47" departLane ="1" departSpeed="16" id="car79" route="route21" type="Car"/>
<vehicle depart ="47" departLane ="1" departSpeed="16" id="car80" route="route21" type="Car"/>
<vehicle depart ="47" departLane ="2" departSpeed="16" id="car81" route="route12" type="Car"/>
<vehicle depart ="48" departLane ="2" departSpeed="16" id="car82" route="route43" type="Car"/>
<vehicle depart ="49" departLane ="2" departSpeed="16" id="car83" route="route34" type="Car"/>
<vehicle depart ="49" departLane ="2" departSpeed="16" id="car84" route="route12" type="Car"/>
<vehicle depart ="52" departLane ="1" departSpeed="16" id="car85" route="route34" type="Car"/>
<vehicle depart ="54" departLane ="0" departSpeed="16" id="car86" route="route21" type="Car"/>
<vehicle depart ="54" departLane ="1" departSpeed="16" id="car87" route="route12" type="Car"/>
<vehicle depart ="54" departLane ="1" departSpeed="16" id="car88" route="route21" type="Car"/>
<vehicle depart ="56" departLane ="0" departSpeed="16" id="car89" route="route21" type="Car"/>
<vehicle depart ="56" departLane ="2" departSpeed="16" id="car90" route="route43" type="Car"/>
<vehicle depart ="57" departLane ="0" departSpeed="16" id="car91" route="route34" type="Car"/>
<vehicle depart ="58" departLane ="1" departSpeed="16" id="car92" route="route12" type="Car"/>
<vehicle depart ="59" departLane ="0" departSpeed="16" id="car93" route="route34" type="Car"/>
<vehicle depart ="59" departLane ="0" departSpeed="16" id="car94" route="route34" type="Car"/>
<vehicle depart ="59" departLane ="2" departSpeed="16" id="car95" route="route21" type="Car"/>
<vehicle depart ="59" departLane ="2" departSpeed="16" id="car96" route="route43" type="Car"/>
<vehicle depart ="60" departLane ="0" departSpeed="16" id="car97" route="route12" type="Car"/>
<vehicle depart ="61" departLane ="0" departSpeed="16" id="car98" route="route21" type="Car"/>
<vehicle depart ="61" departLane ="1" departSpeed="16" id="car99" route="route21" type="Car"/>
<vehicle depart ="61" departLane ="1" departSpeed="16" id="car100" route="route43" type="Car"/>
<vehicle depart ="62" departLane ="0" departSpeed="16" id="car101" route="route12" type="Car"/>
<vehicle depart ="62" departLane ="1" departSpeed="16" id="car102" route="route12" type="Car"/>
<vehicle depart ="63" departLane ="1" departSpeed="16" id="car103" route="route12" type="Car"/>
<vehicle depart ="63" departLane ="2" departSpeed="16" id="car104" route="route21" type="Car"/>
<vehicle depart ="64" departLane ="0" departSpeed="16" id="car105" route="route12" type="Car"/>
<vehicle depart ="64" departLane ="0" departSpeed="16" id="car106" route="route21" type="Car"/>
<vehicle depart ="65" departLane ="0" departSpeed="16" id="car107" route="route43" type="Car"/>
<vehicle depart ="65" departLane ="2" departSpeed="16" id="car108" route="route34" type="Car"/>
<vehicle depart ="66" departLane ="0" departSpeed="16" id="car109" route="route34" type="Car"/>
<vehicle depart ="67" departLane ="2" departSpeed="16" id="car110" route="route12" type="Car"/>
<vehicle depart ="68" departLane ="0" departSpeed="16" id="car111" route="route34" type="Car"/>
<vehicle depart ="69" departLane ="0" departSpeed="16" id="car112" route="route12" type="Car"/>
<vehicle depart ="69" departLane ="1" departSpeed="16" id="car113" route="route21" type="Car"/>
<vehicle depart ="69" departLane ="2" departSpeed="16" id="car114" route="route12" type="Car"/>
<vehicle depart ="70" departLane ="0" departSpeed="16" id="car115" route="route34" type="Car"/>
<vehicle depart ="70" departLane ="2" departSpeed="16" id="car116" route="route34" type="Car"/>
<vehicle depart ="71" departLane ="0" departSpeed="16" id="car117" route="route34" type="Car"/>
<vehicle depart ="71" departLane ="1" departSpeed="16" id="car118" route="route34" type="Car"/>
<vehicle depart ="73" departLane ="2" departSpeed="16" id="car119" route="route12" type="Car"/>
<vehicle depart ="73" departLane ="2" departSpeed="16" id="car120" route="route21" type="Car"/>
<vehicle depart ="73" departLane ="2" departSpeed="16" id="car121" route="route43" type="Car"/>
<vehicle depart ="73" departLane ="2" departSpeed="16" id="car122" route="route34" type="Car"/>
<vehicle depart ="74" departLane ="2" departSpeed="16" id="car123" route="route12" type="Car"/>
<vehicle depart ="76" departLane ="1" departSpeed="16" id="car124" route="route43" type="Car"/>
<vehicle depart ="77" departLane ="2" departSpeed="16" id="car125" route="route12" type="Car"/>
<vehicle depart ="78" departLane ="0" departSpeed="16" id="car126" route="route12" type="Car"/>
<vehicle depart ="79" departLane ="0" departSpeed="16" id="car127" route="route43" type="Car"/>
<vehicle depart ="80" departLane ="1" departSpeed="16" id="car128" route="route12" type="Car"/>
<vehicle depart ="80" departLane ="2" departSpeed="16" id="car129" route="route21" type="Car"/>
<vehicle depart ="81" departLane ="0" departSpeed="16" id="car130" route="route43" type="Car"/>
<vehicle depart ="81" departLane ="1" departSpeed="16" id="car131" route="route12" type="Car"/>
<vehicle depart ="82" departLane ="0" departSpeed="16" id="car132" route="route12" type="Car"/>
<vehicle depart ="82" departLane ="1" departSpeed="16" id="car133" route="route12" type="Car"/>
<vehicle depart ="82" departLane ="2" departSpeed="16" id="car134" route="route12" type="Car"/>
<vehicle depart ="82" departLane ="2" departSpeed="16" id="car135" route="route12" type="Car"/>
<vehicle depart ="83" departLane ="1" departSpeed="16" id="car136" route="route34" type="Car"/>
<vehicle depart ="84" departLane ="0" departSpeed="16" id="car137" route="route21" type="Car"/>
<vehicle depart ="84" departLane ="0" departSpeed="16" id="car138" route="route12" type="Car"/>
<vehicle depart ="84" departLane ="1" departSpeed="16" id="car139" route="route34" type="Car"/>
<vehicle depart ="85" departLane ="2" departSpeed="16" id="car140" route="route12" type="Car"/>
<vehicle depart ="85" departLane ="2" departSpeed="16" id="car141" route="route21" type="Car"/>
<vehicle depart ="87" departLane ="2" departSpeed="16" id="car142" route="route43" type="Car"/>
<vehicle depart ="88" departLane ="1" departSpeed="16" id="car143" route="route12" type="Car"/>
<vehicle depart ="89" departLane ="0" departSpeed="16" id="car144" route="route34" type="Car"/>
<vehicle depart ="89" departLane ="1" departSpeed="16" id="car145" route="route21" type="Car"/>
<vehicle depart ="89" departLane ="1" departSpeed="16" id="car146" route="route43" type="Car"/>
<vehicle depart ="89" departLane ="2" departSpeed="16" id="car147" route="route12" type="Car"/>
<vehicle depart ="90" departLane ="0" departSpeed="16" id="car148" route="route21" type="Car"/>
<vehicle depart ="90" departLane ="0" departSpeed="16" id="car149" route="route34" type="Car"/>
<vehicle depart ="90" departLane ="0" departSpeed="16" id="car150" route="route43" type="Car"/>
<vehicle depart ="90" departLane ="0" departSpeed="16" id="car151" route="route21" type="Car"/>
<vehicle depart ="90" departLane ="2" departSpeed="16" id="car152" route="route34" type="Car"/>
<vehicle depart ="90" departLane ="2" departSpeed="16" id="car153" route="route12" type="Car"/>
<vehicle depart ="91" departLane ="0" departSpeed="16" id="car154" route="route21" type="Car"/>
<vehicle depart ="91" departLane ="0" departSpeed="16" id="car155" route="route34" type="Car"/>
<vehicle depart ="91" departLane ="2" departSpeed="16" id="car156" route="route21" type="Car"/>
<vehicle depart ="91" departLane ="2" departSpeed="16" id="car157" route="route21" type="Car"/>
<vehicle depart ="92" departLane ="0" departSpeed="16" id="car158" route="route12" type="Car"/>
<vehicle depart ="94" departLane ="0" departSpeed="16" id="car159" route="route21" type="Car"/>
<vehicle depart ="94" departLane ="0" departSpeed="16" id="car160" route="route12" type="Car"/>
<vehicle depart ="94" departLane ="1" departSpeed="16" id="car161" route="route12" type="Car"/>
<vehicle depart ="94" departLane ="2" departSpeed="16" id="car162" route="route12" type="Car"/>
<vehicle depart ="94" departLane ="2" departSpeed="16" id="car163" route="route21" type="Car"/>
<vehicle depart ="97" departLane ="2" departSpeed="16" id="car164" route="route43" type="Car"/>
<vehicle depart ="98" departLane ="0" departSpeed="16" id="car165" route="route12" type="Car"/>
<vehicle depart ="98" departLane ="1" departSpeed="16" id="car166" route="route12" type="Car"/>
<vehicle depart ="99" departLane ="1" departSpeed="16" id="car167" route="route43" type="Car"/>
<vehicle depart ="99" departLane ="2" departSpeed="16" id="car168" route="route12" type="Car"/>
<vehicle depart ="99" departLane ="2" departSpeed="16" id="car169" route="route34" type="Car"/>
<vehicle depart ="101" departLane ="1" departSpeed="16" id="car170" route="route12" type="Car"/>
<vehicle depart ="102" departLane ="1" departSpeed="16" id="car171" route="route34" type="Car"/>
<vehicle depart ="103" departLane ="0" departSpeed="16" id="car172" route="route21" type="Car"/>
<vehicle depart ="103" departLane ="0" departSpeed="16" id="car173" route="route21" type="Car"/>
<vehicle depart ="103" departLane ="0" departSpeed="16" id="car174" route="route12" type="Car"/>
<vehicle depart ="105" departLane ="1" departSpeed="16" id="car175" route="route21" type="Car"/>
<vehicle depart ="105" departLane ="2" departSpeed="16" id="car176" route="route21" type="Car"/>
<vehicle depart ="108" departLane ="2" departSpeed="16" id="car177" route="route43" type="Car"/>
<vehicle depart ="109" departLane ="1" departSpeed="16" id="car178" route="route21" type="Car"/>
<vehicle depart ="109" departLane ="1" departSpeed="16" id="car179" route="route34" type="Car"/>
<vehicle depart ="109" departLane ="2" departSpeed="16" id="car180" route="route34" type="Car"/>
<vehicle depart ="110" departLane ="0" departSpeed="16" id="car181" route="route43" type="Car"/>
<vehicle depart ="110" departLane ="0" departSpeed="16" id="car182" route="route43" type="Car"/>
<vehicle depart ="110" departLane ="2" departSpeed="16" id="car183" route="route21" type="Car"/>
<vehicle depart ="111" departLane ="1" departSpeed="16" id="car184" route="route21" type="Car"/>
<vehicle depart ="111" departLane ="1" departSpeed="16" id="car185" route="route12" type="Car"/>
<vehicle depart ="112" departLane ="1" departSpeed="16" id="car186" route="route34" type="Car"/>
<vehicle depart ="113" departLane ="1" departSpeed="16" id="car187" route="route12" type="Car"/>
<vehicle depart ="113" departLane ="2" departSpeed="16" id="car188" route="route21" type="Car"/>
<vehicle depart ="115" departLane ="2" departSpeed="16" id="car189" route="route12" type="Car"/>
<vehicle depart ="117" departLane ="1" departSpeed="16" id="car190" route="route12" type="Car"/>
<vehicle depart ="117" departLane ="2" departSpeed="16" id="car191" route="route12" type="Car"/>
<vehicle depart ="119" departLane ="0" departSpeed="16" id="car192" route="route12" type="Car"/>
<vehicle depart ="120" departLane ="0" departSpeed="16" id="car193" route="route43" type="Car"/>
<vehicle depart ="120" departLane ="2" departSpeed="16" id="car194" route="route34" type="Car"/>
<vehicle depart ="123" departLane ="2" departSpeed="16" id="car195" route="route12" type="Car"/>
<vehicle depart ="124" departLane ="1" departSpeed="16" id="car196" route="route43" type="Car"/>
<vehicle depart ="126" departLane ="1" departSpeed="16" id="car197" route="route34" type="Car"/>
<vehicle depart ="126" departLane ="2" departSpeed="16" id="car198" route="route34" type="Car"/>
<vehicle depart ="127" departLane ="1" departSpeed="16" id="car199" route="route43" type="Car"/>
<vehicle depart ="128" departLane ="2" departSpeed="16" id="car200" route="route34" type="Car"/>
<vehicle depart ="128" departLane ="2" departSpeed="16" id="car201" route="route12" type="Car"/>
<vehicle depart ="129" departLane ="2" departSpeed="16" id="car202" route="route12" type="Car"/>
<vehicle depart ="131" departLane ="0" departSpeed="16" id="car203" route="route34" type="Car"/>
<vehicle depart ="131" departLane ="0" departSpeed="16" id="car204" route="route12" type="Car"/>
<vehicle depart ="131" departLane ="0" departSpeed="16" id="car205" route="route43" type="Car"/>
<vehicle depart ="132" departLane ="1" departSpeed="16" id="car206" route="route12" type="Car"/>
<vehicle depart ="134" departLane ="2" departSpeed="16" id="car207" route="route21" type="Car"/>
<vehicle depart ="135" departLane ="1" departSpeed="16" id="car208" route="route12" type="Car"/>
<vehicle depart ="135" departLane ="2" departSpeed="16" id="car209" route="route21" type="Car"/>
<vehicle depart ="137" departLane ="0" departSpeed="16" id="car210" route="route34" type="Car"/>
<vehicle depart ="137" departLane ="0" departSpeed="16" id="car211" route="route43" type="Car"/>
<vehicle depart ="138" departLane ="2" departSpeed="16" id="car212" route="route12" type="Car"/>
<vehicle depart ="139" departLane ="2" departSpeed="16" id="car213" route="route12" type="Car"/>
<vehicle depart ="140" departLane ="0" departSpeed="16" id="car214" route="route21" type="Car"/>
<vehicle depart ="140" departLane ="2" departSpeed="16" id="car215" route="route12" type="Car"/>
<vehicle depart ="141" departLane ="1" departSpeed="16" id="car216" route="route21" type="Car"/>
<vehicle depart ="141" departLane ="2" departSpeed="16" id="car217" route="route34" type="Car"/>
<vehicle depart ="142" departLane ="0" departSpeed="16" id="car218" route="route21" type="Car"/>
<vehicle depart ="143" departLane ="0" departSpeed="16" id="car219" route="route34" type="Car"/>
<vehicle depart ="143" departLane ="2" departSpeed="16" id="car220" route="route34" type="Car"/>
<vehicle depart ="144" departLane ="1" departSpeed="16" id="car221" route="route43" type="Car"/>
<vehicle depart ="144" departLane ="1" departSpeed="16" id="car222" route="route21" type="Car"/>
<vehicle depart ="146" departLane ="1" departSpeed="16" id="car223" route="route12" type="Car"/>
<vehicle depart ="147" departLane ="0" departSpeed="16" id="car224" route="route12" type="Car"/>
<vehicle depart ="147" departLane ="2" departSpeed="16" id="car225" route="route34" type="Car"/>
<vehicle depart ="149" departLane ="0" departSpeed="16" id="car226" route="route21" type="Car"/>
<vehicle depart ="149" departLane ="1" departSpeed="16" id="car227" route="route34" type="Car"/>
<vehicle depart ="151" departLane ="0" departSpeed="16" id="car228" route="route12" type="Car"/>
<vehicle depart ="151" departLane ="0" departSpeed="16" id="car229" route="route21" type="Car"/>
<vehicle depart ="152" departLane ="2" departSpeed="16" id="car230" route="route21" type="Car"/>
<vehicle depart ="153" departLane ="1" departSpeed="16" id="car231" route="route12" type="Car"/>
<vehicle depart ="154" departLane ="0" departSpeed="16" id="car232" route="route12" type="Car"/>
<vehicle depart ="154" departLane ="0" departSpeed="16" id="car233" route="route21" type="Car"/>
<vehicle depart ="155" departLane ="1" departSpeed="16" id="car234" route="route34" type="Car"/>
<vehicle depart ="156" departLane ="0" departSpeed="16" id="car235" route="route43" type="Car"/>
<vehicle depart ="157" departLane ="0" departSpeed="16" id="car236" route="route34" type="Car"/>
<vehicle depart ="157" departLane ="1" departSpeed="16" id="car237" route="route21" type="Car"/>
<vehicle depart ="157" departLane ="2" departSpeed="16" id="car238" route="route12" type="Car"/>
<vehicle depart ="157" departLane ="2" departSpeed="16" id="car239" route="route43" type="Car"/>
<vehicle depart ="158" departLane ="2" departSpeed="16" id="car240" route="route34" type="Car"/>
<vehicle depart ="159" departLane ="0" departSpeed="16" id="car241" route="route43" type="Car"/>
<vehicle depart ="159" departLane ="1" departSpeed="16" id="car242" route="route43" type="Car"/>
<vehicle depart ="160" departLane ="0" departSpeed="16" id="car243" route="route43" type="Car"/>
<vehicle depart ="161" departLane ="0" departSpeed="16" id="car244" route="route43" type="Car"/>
<vehicle depart ="161" departLane ="2" departSpeed="16" id="car245" route="route34" type="Car"/>
<vehicle depart ="162" departLane ="0" departSpeed="16" id="car246" route="route12" type="Car"/>
<vehicle depart ="162" departLane ="2" departSpeed="16" id="car247" route="route43" type="Car"/>
<vehicle depart ="163" departLane ="0" departSpeed="16" id="car248" route="route21" type="Car"/>
<vehicle depart ="163" departLane ="2" departSpeed="16" id="car249" route="route43" type="Car"/>
<vehicle depart ="164" departLane ="2" departSpeed="16" id="car250" route="route12" type="Car"/>
<vehicle depart ="165" departLane ="1" departSpeed="16" id="car251" route="route34" type="Car"/>
<vehicle depart ="167" departLane ="2" departSpeed="16" id="car252" route="route12" type="Car"/>
<vehicle depart ="169" departLane ="0" departSpeed="16" id="car253" route="route21" type="Car"/>
<vehicle depart ="169" departLane ="0" departSpeed="16" id="car254" route="route12" type="Car"/>
<vehicle depart ="170" departLane ="1" departSpeed="16" id="car255" route="route43" type="Car"/>
<vehicle depart ="170" departLane ="2" departSpeed="16" id="car256" route="route21" type="Car"/>
<vehicle depart ="172" departLane ="1" departSpeed="16" id="car257" route="route34" type="Car"/>
<vehicle depart ="174" departLane ="1" departSpeed="16" id="car258" route="route12" type="Car"/>
<vehicle depart ="174" departLane ="2" departSpeed="16" id="car259" route="route21" type="Car"/>
<vehicle depart ="175" departLane ="1" departSpeed="16" id="car260" route="route34" type="Car"/>
<vehicle depart ="176" departLane ="0" departSpeed="16" id="car261" route="route12" type="Car"/>
<vehicle depart ="176" departLane ="1" departSpeed="16" id="car262" route="route43" type="Car"/>
<vehicle depart ="176" departLane ="2" departSpeed="16" id="car263" route="route21" type="Car"/>
<vehicle depart ="176" departLane ="2" departSpeed="16" id="car264" route="route34" type="Car"/>
<vehicle depart ="177" departLane ="0" departSpeed="16" id="car265" route="route43" type="Car"/>
<vehicle depart ="177" departLane ="0" departSpeed="16" id="car266" route="route12" type="Car"/>
<vehicle depart ="178" departLane ="1" departSpeed="16" id="car267" route="route34" type="Car"/>
<vehicle depart ="178" departLane ="1" departSpeed="16" id="car268" route="route43" type="Car"/>
<vehicle depart ="178" departLane ="2" departSpeed="16" id="car269" route="route34" type="Car"/>
<vehicle depart ="179" departLane ="1" departSpeed="16" id="car270" route="route12" type="Car"/>
<vehicle depart ="181" departLane ="0" departSpeed="16" id="car271" route="route43" type="Car"/>
<vehicle depart ="181" departLane ="1" departSpeed="16" id="car272" route="route12" type="Car"/>
<vehicle depart ="182" departLane ="1" departSpeed="16" id="car273" route="route12" type="Car"/>
<vehicle depart ="182" departLane ="2" departSpeed="16" id="car274" route="route12" type="Car"/>
<vehicle depart ="182" departLane ="2" departSpeed="16" id="car275" route="route12" type="Car"/>
<vehicle depart ="183" departLane ="0" departSpeed="16" id="car276" route="route21" type="Car"/>
<vehicle depart ="183" departLane ="0" departSpeed="16" id="car277" route="route21" type="Car"/>
<vehicle depart ="184" departLane ="1" departSpeed="16" id="car278" route="route43" type="Car"/>
<vehicle depart ="185" departLane ="0" departSpeed="16" id="car279" route="route12" type="Car"/>
<vehicle depart ="185" departLane ="0" departSpeed="16" id="car280" route="route43" type="Car"/>
<vehicle depart ="185" departLane ="0" departSpeed="16" id="car281" route="route21" type="Car"/>
<vehicle depart ="186" departLane ="0" departSpeed="16" id="car282" route="route21" type="Car"/>
<vehicle depart ="188" departLane ="2" departSpeed="16" id="car283" route="route34" type="Car"/>
<vehicle depart ="189" departLane ="2" departSpeed="16" id="car284" route="route43" type="Car"/>
<vehicle depart ="190" departLane ="0" departSpeed="16" id="car285" route="route43" type="Car"/>
<vehicle depart ="190" departLane ="1" departSpeed="16" id="car286" route="route43" type="Car"/>
<vehicle depart ="190" departLane ="2" departSpeed="16" id="car287" route="route12" type="Car"/>
<vehicle depart ="191" departLane ="2" departSpeed="16" id="car288" route="route43" type="Car"/>
<vehicle depart ="191" departLane ="2" departSpeed="16" id="car289" route="route43" type="Car"/>
<vehicle depart ="191" departLane ="2" departSpeed="16" id="car290" route="route34" type="Car"/>
<vehicle depart ="192" departLane ="2" departSpeed="16" id="car291" route="route21" type="Car"/>
<vehicle depart ="193" departLane ="0" departSpeed="16" id="car292" route="route12" type="Car"/>
<vehicle depart ="195" departLane ="0" departSpeed="16" id="car293" route="route21" type="Car"/>
<vehicle depart ="195" departLane ="1" departSpeed="16" id="car294" route="route43" type="Car"/>
<vehicle depart ="196" departLane ="1" departSpeed="16" id="car295" route="route21" type="Car"/>
<vehicle depart ="196" departLane ="2" departSpeed="16" id="car296" route="route21" type="Car"/>
<vehicle depart ="196" departLane ="2" departSpeed="16" id="car297" route="route21" type="Car"/>
<vehicle depart ="197" departLane ="1" departSpeed="16" id="car298" route="route21" type="Car"/>
<vehicle depart ="200" departLane ="0" departSpeed="16" id="car299" route="route12" type="Car"/>
