<routes>
    <vType accel="1.0" decel="5.0" id="Car" jmIgnoreKeepClearTime="100.0" maxSpeed="16" minGap="4" length="3" vClass="passenger"/>

        
    <!--emergencyDecel="0.0"-->
    <route id="route12" edges="Road1 Road2_out"/> <!-- Geradeaus-->
    <route id="route13" edges="Road1 Road3_out"/>
    <route id="route14" edges="Road1 Road4_out"/>

    <route id="route21" edges="Road2 Road1_out"/> <!-- Geradeaus-->
    <route id="route23" edges="Road2 Road3_out"/>
    <route id="route24" edges="Road2 Road4_out"/> 

    <route id="route31" edges="Road3 Road1_out"/> 
    <route id="route32" edges="Road3 Road2_out"/> 
    <route id="route34" edges="Road3 Road4_out"/> <!-- Geradeaus-->

    <route id="route41" edges="Road4 Road1_out"/>
    <route id="route42" edges="Road4 Road2_out"/>
    <route id="route43" edges="Road4 Road3_out"/> <!-- Geradeaus-->



    <vehicle depart ="0" departLane ="2" id="car0" route="route12" type="Car"/>
<vehicle depart ="1" departLane ="2" id="car1" route="route43" type="Car"/>
<vehicle depart ="3" departLane ="0" id="car2" route="route21" type="Car"/>
<vehicle depart ="4" departLane ="1" id="car3" route="route34" type="Car"/>
<vehicle depart ="5" departLane ="1" id="car4" route="route12" type="Car"/>
<vehicle depart ="6" departLane ="0" id="car5" route="route12" type="Car"/>
<vehicle depart ="6" departLane ="1" id="car6" route="route34" type="Car"/>
<vehicle depart ="6" departLane ="1" id="car7" route="route43" type="Car"/>
<vehicle depart ="6" departLane ="1" id="car8" route="route43" type="Car"/>
<vehicle depart ="6" departLane ="2" id="car9" route="route21" type="Car"/>
<vehicle depart ="7" departLane ="1" id="car10" route="route12" type="Car"/>
<vehicle depart ="8" departLane ="0" id="car11" route="route12" type="Car"/>
<vehicle depart ="8" departLane ="0" id="car12" route="route12" type="Car"/>
<vehicle depart ="8" departLane ="1" id="car13" route="route43" type="Car"/>
<vehicle depart ="10" departLane ="1" id="car14" route="route21" type="Car"/>
<vehicle depart ="10" departLane ="1" id="car15" route="route12" type="Car"/>
<vehicle depart ="11" departLane ="0" id="car16" route="route21" type="Car"/>
<vehicle depart ="11" departLane ="1" id="car17" route="route12" type="Car"/>
<vehicle depart ="11" departLane ="2" id="car18" route="route12" type="Car"/>
<vehicle depart ="13" departLane ="0" id="car19" route="route43" type="Car"/>
<vehicle depart ="13" departLane ="1" id="car20" route="route21" type="Car"/>
<vehicle depart ="15" departLane ="1" id="car21" route="route21" type="Car"/>
<vehicle depart ="15" departLane ="2" id="car22" route="route12" type="Car"/>
<vehicle depart ="16" departLane ="1" id="car23" route="route12" type="Car"/>
<vehicle depart ="16" departLane ="1" id="car24" route="route21" type="Car"/>
<vehicle depart ="16" departLane ="2" id="car25" route="route21" type="Car"/>
<vehicle depart ="17" departLane ="0" id="car26" route="route21" type="Car"/>
<vehicle depart ="17" departLane ="0" id="car27" route="route21" type="Car"/>
<vehicle depart ="17" departLane ="0" id="car28" route="route43" type="Car"/>
<vehicle depart ="18" departLane ="0" id="car29" route="route12" type="Car"/>
<vehicle depart ="18" departLane ="2" id="car30" route="route43" type="Car"/>
<vehicle depart ="20" departLane ="0" id="car31" route="route12" type="Car"/>
<vehicle depart ="21" departLane ="1" id="car32" route="route34" type="Car"/>
<vehicle depart ="21" departLane ="2" id="car33" route="route43" type="Car"/>
<vehicle depart ="22" departLane ="1" id="car34" route="route12" type="Car"/>
<vehicle depart ="22" departLane ="2" id="car35" route="route21" type="Car"/>
<vehicle depart ="23" departLane ="0" id="car36" route="route43" type="Car"/>
<vehicle depart ="24" departLane ="2" id="car37" route="route43" type="Car"/>
<vehicle depart ="25" departLane ="1" id="car38" route="route12" type="Car"/>
<vehicle depart ="26" departLane ="0" id="car39" route="route43" type="Car"/>
<vehicle depart ="26" departLane ="1" id="car40" route="route12" type="Car"/>
<vehicle depart ="27" departLane ="1" id="car41" route="route43" type="Car"/>
<vehicle depart ="27" departLane ="2" id="car42" route="route21" type="Car"/>
<vehicle depart ="28" departLane ="0" id="car43" route="route12" type="Car"/>
<vehicle depart ="28" departLane ="1" id="car44" route="route43" type="Car"/>
<vehicle depart ="30" departLane ="1" id="car45" route="route21" type="Car"/>
<vehicle depart ="31" departLane ="2" id="car46" route="route34" type="Car"/>
<vehicle depart ="31" departLane ="2" id="car47" route="route34" type="Car"/>
<vehicle depart ="32" departLane ="2" id="car48" route="route34" type="Car"/>
<vehicle depart ="33" departLane ="2" id="car49" route="route43" type="Car"/>
<vehicle depart ="34" departLane ="0" id="car50" route="route34" type="Car"/>
<vehicle depart ="34" departLane ="2" id="car51" route="route34" type="Car"/>
<vehicle depart ="35" departLane ="0" id="car52" route="route21" type="Car"/>
<vehicle depart ="35" departLane ="2" id="car53" route="route43" type="Car"/>
<vehicle depart ="35" departLane ="2" id="car54" route="route21" type="Car"/>
<vehicle depart ="36" departLane ="1" id="car55" route="route12" type="Car"/>
<vehicle depart ="36" departLane ="2" id="car56" route="route21" type="Car"/>
<vehicle depart ="37" departLane ="0" id="car57" route="route43" type="Car"/>
<vehicle depart ="37" departLane ="2" id="car58" route="route12" type="Car"/>
<vehicle depart ="37" departLane ="2" id="car59" route="route12" type="Car"/>
<vehicle depart ="38" departLane ="1" id="car60" route="route34" type="Car"/>
<vehicle depart ="38" departLane ="2" id="car61" route="route34" type="Car"/>
<vehicle depart ="40" departLane ="2" id="car62" route="route43" type="Car"/>
<vehicle depart ="42" departLane ="0" id="car63" route="route43" type="Car"/>
<vehicle depart ="42" departLane ="2" id="car64" route="route34" type="Car"/>
<vehicle depart ="43" departLane ="0" id="car65" route="route34" type="Car"/>
<vehicle depart ="44" departLane ="2" id="car66" route="route43" type="Car"/>
<vehicle depart ="45" departLane ="1" id="car67" route="route12" type="Car"/>
<vehicle depart ="45" departLane ="2" id="car68" route="route12" type="Car"/>
<vehicle depart ="47" departLane ="0" id="car69" route="route21" type="Car"/>
<vehicle depart ="47" departLane ="1" id="car70" route="route21" type="Car"/>
<vehicle depart ="49" departLane ="1" id="car71" route="route34" type="Car"/>
<vehicle depart ="49" departLane ="1" id="car72" route="route21" type="Car"/>
<vehicle depart ="50" departLane ="0" id="car73" route="route43" type="Car"/>
<vehicle depart ="50" departLane ="1" id="car74" route="route43" type="Car"/>
<vehicle depart ="50" departLane ="1" id="car75" route="route12" type="Car"/>
<vehicle depart ="52" departLane ="2" id="car76" route="route21" type="Car"/>
<vehicle depart ="56" departLane ="0" id="car77" route="route34" type="Car"/>
<vehicle depart ="56" departLane ="1" id="car78" route="route43" type="Car"/>
<vehicle depart ="57" departLane ="0" id="car79" route="route12" type="Car"/>
<vehicle depart ="57" departLane ="2" id="car80" route="route21" type="Car"/>
<vehicle depart ="58" departLane ="2" id="car81" route="route43" type="Car"/>
<vehicle depart ="59" departLane ="0" id="car82" route="route12" type="Car"/>
<vehicle depart ="59" departLane ="0" id="car83" route="route21" type="Car"/>
<vehicle depart ="59" departLane ="1" id="car84" route="route43" type="Car"/>
<vehicle depart ="59" departLane ="2" id="car85" route="route34" type="Car"/>
<vehicle depart ="59" departLane ="2" id="car86" route="route43" type="Car"/>
<vehicle depart ="61" departLane ="0" id="car87" route="route34" type="Car"/>
<vehicle depart ="61" departLane ="0" id="car88" route="route43" type="Car"/>
<vehicle depart ="61" departLane ="0" id="car89" route="route34" type="Car"/>
<vehicle depart ="61" departLane ="1" id="car90" route="route12" type="Car"/>
<vehicle depart ="62" departLane ="0" id="car91" route="route43" type="Car"/>
<vehicle depart ="62" departLane ="2" id="car92" route="route34" type="Car"/>
<vehicle depart ="64" departLane ="1" id="car93" route="route43" type="Car"/>
<vehicle depart ="66" departLane ="0" id="car94" route="route21" type="Car"/>
<vehicle depart ="66" departLane ="0" id="car95" route="route34" type="Car"/>
<vehicle depart ="66" departLane ="2" id="car96" route="route43" type="Car"/>
<vehicle depart ="67" departLane ="0" id="car97" route="route43" type="Car"/>
<vehicle depart ="68" departLane ="0" id="car98" route="route34" type="Car"/>
<vehicle depart ="68" departLane ="1" id="car99" route="route21" type="Car"/>
<vehicle depart ="68" departLane ="1" id="car100" route="route34" type="Car"/>
<vehicle depart ="68" departLane ="1" id="car101" route="route43" type="Car"/>
<vehicle depart ="69" departLane ="2" id="car102" route="route43" type="Car"/>
<vehicle depart ="70" departLane ="0" id="car103" route="route21" type="Car"/>
<vehicle depart ="70" departLane ="2" id="car104" route="route43" type="Car"/>
<vehicle depart ="71" departLane ="0" id="car105" route="route12" type="Car"/>
<vehicle depart ="73" departLane ="1" id="car106" route="route43" type="Car"/>
<vehicle depart ="73" departLane ="2" id="car107" route="route43" type="Car"/>
<vehicle depart ="74" departLane ="2" id="car108" route="route34" type="Car"/>
<vehicle depart ="75" departLane ="0" id="car109" route="route43" type="Car"/>
<vehicle depart ="75" departLane ="0" id="car110" route="route12" type="Car"/>
<vehicle depart ="75" departLane ="0" id="car111" route="route34" type="Car"/>
<vehicle depart ="77" departLane ="0" id="car112" route="route43" type="Car"/>
<vehicle depart ="77" departLane ="1" id="car113" route="route21" type="Car"/>
<vehicle depart ="78" departLane ="1" id="car114" route="route34" type="Car"/>
<vehicle depart ="78" departLane ="2" id="car115" route="route21" type="Car"/>
<vehicle depart ="79" departLane ="0" id="car116" route="route21" type="Car"/>
<vehicle depart ="80" departLane ="0" id="car117" route="route21" type="Car"/>
<vehicle depart ="80" departLane ="1" id="car118" route="route12" type="Car"/>
<vehicle depart ="80" departLane ="2" id="car119" route="route34" type="Car"/>
<vehicle depart ="80" departLane ="2" id="car120" route="route34" type="Car"/>
<vehicle depart ="81" departLane ="1" id="car121" route="route43" type="Car"/>
<vehicle depart ="81" departLane ="2" id="car122" route="route12" type="Car"/>
<vehicle depart ="82" departLane ="1" id="car123" route="route21" type="Car"/>
<vehicle depart ="83" departLane ="1" id="car124" route="route34" type="Car"/>
<vehicle depart ="84" departLane ="2" id="car125" route="route12" type="Car"/>
<vehicle depart ="84" departLane ="2" id="car126" route="route34" type="Car"/>
<vehicle depart ="84" departLane ="2" id="car127" route="route21" type="Car"/>
<vehicle depart ="85" departLane ="1" id="car128" route="route34" type="Car"/>
<vehicle depart ="85" departLane ="1" id="car129" route="route21" type="Car"/>
<vehicle depart ="85" departLane ="2" id="car130" route="route12" type="Car"/>
<vehicle depart ="86" departLane ="1" id="car131" route="route43" type="Car"/>
<vehicle depart ="89" departLane ="0" id="car132" route="route43" type="Car"/>
<vehicle depart ="89" departLane ="0" id="car133" route="route21" type="Car"/>
<vehicle depart ="89" departLane ="2" id="car134" route="route34" type="Car"/>
<vehicle depart ="90" departLane ="0" id="car135" route="route34" type="Car"/>
<vehicle depart ="92" departLane ="2" id="car136" route="route21" type="Car"/>
<vehicle depart ="93" departLane ="1" id="car137" route="route43" type="Car"/>
<vehicle depart ="93" departLane ="2" id="car138" route="route12" type="Car"/>
<vehicle depart ="93" departLane ="2" id="car139" route="route43" type="Car"/>
<vehicle depart ="94" departLane ="0" id="car140" route="route12" type="Car"/>
<vehicle depart ="95" departLane ="2" id="car141" route="route21" type="Car"/>
<vehicle depart ="96" departLane ="0" id="car142" route="route21" type="Car"/>
<vehicle depart ="98" departLane ="1" id="car143" route="route43" type="Car"/>
<vehicle depart ="98" departLane ="2" id="car144" route="route43" type="Car"/>
<vehicle depart ="99" departLane ="2" id="car145" route="route43" type="Car"/>
<vehicle depart ="99" departLane ="2" id="car146" route="route21" type="Car"/>
<vehicle depart ="100" departLane ="0" id="car147" route="route21" type="Car"/>
<vehicle depart ="100" departLane ="1" id="car148" route="route12" type="Car"/>
<vehicle depart ="103" departLane ="0" id="car149" route="route43" type="Car"/>
<vehicle depart ="103" departLane ="1" id="car150" route="route43" type="Car"/>
<vehicle depart ="103" departLane ="2" id="car151" route="route43" type="Car"/>
<vehicle depart ="104" departLane ="1" id="car152" route="route12" type="Car"/>
<vehicle depart ="104" departLane ="2" id="car153" route="route12" type="Car"/>
<vehicle depart ="105" departLane ="0" id="car154" route="route43" type="Car"/>
<vehicle depart ="106" departLane ="1" id="car155" route="route12" type="Car"/>
<vehicle depart ="106" departLane ="1" id="car156" route="route43" type="Car"/>
<vehicle depart ="106" departLane ="1" id="car157" route="route43" type="Car"/>
<vehicle depart ="108" departLane ="2" id="car158" route="route43" type="Car"/>
<vehicle depart ="109" departLane ="0" id="car159" route="route43" type="Car"/>
<vehicle depart ="109" departLane ="1" id="car160" route="route12" type="Car"/>
<vehicle depart ="109" departLane ="1" id="car161" route="route34" type="Car"/>
<vehicle depart ="110" departLane ="2" id="car162" route="route34" type="Car"/>
<vehicle depart ="111" departLane ="1" id="car163" route="route12" type="Car"/>
<vehicle depart ="111" departLane ="2" id="car164" route="route12" type="Car"/>
<vehicle depart ="112" departLane ="0" id="car165" route="route21" type="Car"/>
<vehicle depart ="112" departLane ="2" id="car166" route="route12" type="Car"/>
<vehicle depart ="112" departLane ="2" id="car167" route="route12" type="Car"/>
<vehicle depart ="112" departLane ="2" id="car168" route="route12" type="Car"/>
<vehicle depart ="113" departLane ="2" id="car169" route="route12" type="Car"/>
<vehicle depart ="114" departLane ="2" id="car170" route="route21" type="Car"/>
<vehicle depart ="116" departLane ="1" id="car171" route="route21" type="Car"/>
<vehicle depart ="116" departLane ="1" id="car172" route="route12" type="Car"/>
<vehicle depart ="116" departLane ="2" id="car173" route="route43" type="Car"/>
<vehicle depart ="117" departLane ="1" id="car174" route="route34" type="Car"/>
<vehicle depart ="117" departLane ="2" id="car175" route="route12" type="Car"/>
<vehicle depart ="118" departLane ="1" id="car176" route="route21" type="Car"/>
<vehicle depart ="118" departLane ="2" id="car177" route="route12" type="Car"/>
<vehicle depart ="119" departLane ="1" id="car178" route="route43" type="Car"/>
<vehicle depart ="119" departLane ="1" id="car179" route="route21" type="Car"/>
<vehicle depart ="119" departLane ="2" id="car180" route="route43" type="Car"/>
<vehicle depart ="119" departLane ="2" id="car181" route="route34" type="Car"/>
<vehicle depart ="120" departLane ="1" id="car182" route="route12" type="Car"/>
<vehicle depart ="120" departLane ="2" id="car183" route="route12" type="Car"/>
<vehicle depart ="122" departLane ="0" id="car184" route="route43" type="Car"/>
<vehicle depart ="122" departLane ="2" id="car185" route="route34" type="Car"/>
<vehicle depart ="123" departLane ="1" id="car186" route="route12" type="Car"/>
<vehicle depart ="123" departLane ="1" id="car187" route="route21" type="Car"/>
<vehicle depart ="124" departLane ="1" id="car188" route="route34" type="Car"/>
<vehicle depart ="125" departLane ="2" id="car189" route="route12" type="Car"/>
<vehicle depart ="126" departLane ="0" id="car190" route="route12" type="Car"/>
<vehicle depart ="127" departLane ="2" id="car191" route="route21" type="Car"/>
<vehicle depart ="128" departLane ="2" id="car192" route="route12" type="Car"/>
<vehicle depart ="129" departLane ="0" id="car193" route="route12" type="Car"/>
<vehicle depart ="129" departLane ="0" id="car194" route="route21" type="Car"/>
<vehicle depart ="129" departLane ="1" id="car195" route="route12" type="Car"/>
<vehicle depart ="129" departLane ="1" id="car196" route="route21" type="Car"/>
<vehicle depart ="130" departLane ="1" id="car197" route="route34" type="Car"/>
<vehicle depart ="131" departLane ="0" id="car198" route="route12" type="Car"/>
<vehicle depart ="131" departLane ="0" id="car199" route="route43" type="Car"/>
<vehicle depart ="131" departLane ="0" id="car200" route="route21" type="Car"/>
<vehicle depart ="131" departLane ="0" id="car201" route="route34" type="Car"/>
<vehicle depart ="131" departLane ="1" id="car202" route="route12" type="Car"/>
<vehicle depart ="132" departLane ="0" id="car203" route="route34" type="Car"/>
<vehicle depart ="132" departLane ="0" id="car204" route="route34" type="Car"/>
<vehicle depart ="132" departLane ="1" id="car205" route="route43" type="Car"/>
<vehicle depart ="134" departLane ="2" id="car206" route="route21" type="Car"/>
<vehicle depart ="136" departLane ="1" id="car207" route="route34" type="Car"/>
<vehicle depart ="137" departLane ="0" id="car208" route="route34" type="Car"/>
<vehicle depart ="137" departLane ="0" id="car209" route="route21" type="Car"/>
<vehicle depart ="137" departLane ="1" id="car210" route="route12" type="Car"/>
<vehicle depart ="138" departLane ="2" id="car211" route="route21" type="Car"/>
<vehicle depart ="139" departLane ="1" id="car212" route="route34" type="Car"/>
<vehicle depart ="140" departLane ="0" id="car213" route="route21" type="Car"/>
<vehicle depart ="140" departLane ="1" id="car214" route="route12" type="Car"/>
<vehicle depart ="140" departLane ="1" id="car215" route="route12" type="Car"/>
<vehicle depart ="140" departLane ="2" id="car216" route="route12" type="Car"/>
<vehicle depart ="142" departLane ="0" id="car217" route="route43" type="Car"/>
<vehicle depart ="143" departLane ="1" id="car218" route="route12" type="Car"/>
<vehicle depart ="145" departLane ="0" id="car219" route="route43" type="Car"/>
<vehicle depart ="145" departLane ="0" id="car220" route="route43" type="Car"/>
<vehicle depart ="145" departLane ="1" id="car221" route="route12" type="Car"/>
<vehicle depart ="146" departLane ="0" id="car222" route="route34" type="Car"/>
<vehicle depart ="147" departLane ="0" id="car223" route="route34" type="Car"/>
<vehicle depart ="147" departLane ="2" id="car224" route="route12" type="Car"/>
<vehicle depart ="148" departLane ="1" id="car225" route="route12" type="Car"/>
<vehicle depart ="148" departLane ="2" id="car226" route="route12" type="Car"/>
<vehicle depart ="149" departLane ="0" id="car227" route="route21" type="Car"/>
<vehicle depart ="149" departLane ="2" id="car228" route="route34" type="Car"/>
<vehicle depart ="151" departLane ="0" id="car229" route="route21" type="Car"/>
<vehicle depart ="151" departLane ="0" id="car230" route="route12" type="Car"/>
<vehicle depart ="151" departLane ="1" id="car231" route="route12" type="Car"/>
<vehicle depart ="151" departLane ="2" id="car232" route="route12" type="Car"/>
<vehicle depart ="152" departLane ="2" id="car233" route="route12" type="Car"/>
<vehicle depart ="153" departLane ="0" id="car234" route="route21" type="Car"/>
<vehicle depart ="155" departLane ="0" id="car235" route="route21" type="Car"/>
<vehicle depart ="155" departLane ="2" id="car236" route="route12" type="Car"/>
<vehicle depart ="156" departLane ="1" id="car237" route="route21" type="Car"/>
<vehicle depart ="157" departLane ="2" id="car238" route="route21" type="Car"/>
<vehicle depart ="158" departLane ="0" id="car239" route="route34" type="Car"/>
<vehicle depart ="158" departLane ="0" id="car240" route="route34" type="Car"/>
<vehicle depart ="158" departLane ="1" id="car241" route="route43" type="Car"/>
<vehicle depart ="158" departLane ="2" id="car242" route="route34" type="Car"/>
<vehicle depart ="159" departLane ="1" id="car243" route="route34" type="Car"/>
<vehicle depart ="159" departLane ="1" id="car244" route="route34" type="Car"/>
<vehicle depart ="159" departLane ="1" id="car245" route="route34" type="Car"/>
<vehicle depart ="161" departLane ="0" id="car246" route="route21" type="Car"/>
<vehicle depart ="161" departLane ="2" id="car247" route="route12" type="Car"/>
<vehicle depart ="162" departLane ="0" id="car248" route="route34" type="Car"/>
<vehicle depart ="162" departLane ="0" id="car249" route="route34" type="Car"/>
<vehicle depart ="164" departLane ="0" id="car250" route="route34" type="Car"/>
<vehicle depart ="164" departLane ="0" id="car251" route="route34" type="Car"/>
<vehicle depart ="164" departLane ="1" id="car252" route="route21" type="Car"/>
<vehicle depart ="164" departLane ="2" id="car253" route="route34" type="Car"/>
<vehicle depart ="165" departLane ="0" id="car254" route="route43" type="Car"/>
<vehicle depart ="165" departLane ="2" id="car255" route="route34" type="Car"/>
<vehicle depart ="166" departLane ="1" id="car256" route="route34" type="Car"/>
<vehicle depart ="166" departLane ="2" id="car257" route="route34" type="Car"/>
<vehicle depart ="166" departLane ="2" id="car258" route="route21" type="Car"/>
<vehicle depart ="167" departLane ="1" id="car259" route="route34" type="Car"/>
<vehicle depart ="168" departLane ="1" id="car260" route="route21" type="Car"/>
<vehicle depart ="169" departLane ="2" id="car261" route="route21" type="Car"/>
<vehicle depart ="171" departLane ="0" id="car262" route="route43" type="Car"/>
<vehicle depart ="172" departLane ="0" id="car263" route="route21" type="Car"/>
<vehicle depart ="172" departLane ="1" id="car264" route="route43" type="Car"/>
<vehicle depart ="172" departLane ="2" id="car265" route="route21" type="Car"/>
<vehicle depart ="172" departLane ="2" id="car266" route="route43" type="Car"/>
<vehicle depart ="173" departLane ="1" id="car267" route="route43" type="Car"/>
<vehicle depart ="173" departLane ="2" id="car268" route="route34" type="Car"/>
<vehicle depart ="174" departLane ="1" id="car269" route="route21" type="Car"/>
<vehicle depart ="175" departLane ="0" id="car270" route="route43" type="Car"/>
<vehicle depart ="175" departLane ="0" id="car271" route="route12" type="Car"/>
<vehicle depart ="175" departLane ="1" id="car272" route="route12" type="Car"/>
<vehicle depart ="175" departLane ="2" id="car273" route="route34" type="Car"/>
<vehicle depart ="176" departLane ="1" id="car274" route="route34" type="Car"/>
<vehicle depart ="176" departLane ="1" id="car275" route="route12" type="Car"/>
<vehicle depart ="176" departLane ="2" id="car276" route="route21" type="Car"/>
<vehicle depart ="178" departLane ="2" id="car277" route="route34" type="Car"/>
<vehicle depart ="179" departLane ="0" id="car278" route="route34" type="Car"/>
<vehicle depart ="179" departLane ="1" id="car279" route="route12" type="Car"/>
<vehicle depart ="179" departLane ="1" id="car280" route="route21" type="Car"/>
<vehicle depart ="179" departLane ="1" id="car281" route="route43" type="Car"/>
<vehicle depart ="179" departLane ="2" id="car282" route="route12" type="Car"/>
<vehicle depart ="180" departLane ="0" id="car283" route="route12" type="Car"/>
<vehicle depart ="180" departLane ="1" id="car284" route="route12" type="Car"/>
<vehicle depart ="180" departLane ="1" id="car285" route="route21" type="Car"/>
<vehicle depart ="180" departLane ="2" id="car286" route="route34" type="Car"/>
<vehicle depart ="181" departLane ="2" id="car287" route="route12" type="Car"/>
<vehicle depart ="182" departLane ="1" id="car288" route="route12" type="Car"/>
<vehicle depart ="182" departLane ="1" id="car289" route="route12" type="Car"/>
<vehicle depart ="182" departLane ="2" id="car290" route="route12" type="Car"/>
<vehicle depart ="183" departLane ="1" id="car291" route="route12" type="Car"/>
<vehicle depart ="183" departLane ="2" id="car292" route="route34" type="Car"/>
<vehicle depart ="184" departLane ="0" id="car293" route="route21" type="Car"/>
<vehicle depart ="185" departLane ="2" id="car294" route="route21" type="Car"/>
<vehicle depart ="186" departLane ="0" id="car295" route="route21" type="Car"/>
<vehicle depart ="187" departLane ="0" id="car296" route="route12" type="Car"/>
<vehicle depart ="188" departLane ="1" id="car297" route="route34" type="Car"/>
<vehicle depart ="188" departLane ="1" id="car298" route="route34" type="Car"/>
<vehicle depart ="188" departLane ="2" id="car299" route="route43" type="Car"/>
<vehicle depart ="189" departLane ="0" id="car300" route="route34" type="Car"/>
<vehicle depart ="189" departLane ="1" id="car301" route="route43" type="Car"/>
<vehicle depart ="191" departLane ="0" id="car302" route="route21" type="Car"/>
<vehicle depart ="191" departLane ="2" id="car303" route="route21" type="Car"/>
<vehicle depart ="192" departLane ="2" id="car304" route="route34" type="Car"/>
<vehicle depart ="193" departLane ="0" id="car305" route="route43" type="Car"/>
<vehicle depart ="193" departLane ="1" id="car306" route="route43" type="Car"/>
<vehicle depart ="193" departLane ="2" id="car307" route="route34" type="Car"/>
<vehicle depart ="193" departLane ="2" id="car308" route="route34" type="Car"/>
<vehicle depart ="194" departLane ="2" id="car309" route="route43" type="Car"/>
<vehicle depart ="195" departLane ="1" id="car310" route="route43" type="Car"/>
<vehicle depart ="196" departLane ="0" id="car311" route="route34" type="Car"/>
<vehicle depart ="197" departLane ="0" id="car312" route="route12" type="Car"/>
<vehicle depart ="197" departLane ="1" id="car313" route="route43" type="Car"/>
<vehicle depart ="201" departLane ="0" id="car314" route="route43" type="Car"/>
<vehicle depart ="201" departLane ="0" id="car315" route="route21" type="Car"/>
<vehicle depart ="201" departLane ="2" id="car316" route="route34" type="Car"/>
<vehicle depart ="202" departLane ="0" id="car317" route="route12" type="Car"/>
<vehicle depart ="202" departLane ="0" id="car318" route="route21" type="Car"/>
<vehicle depart ="202" departLane ="2" id="car319" route="route43" type="Car"/>
<vehicle depart ="203" departLane ="2" id="car320" route="route12" type="Car"/>
<vehicle depart ="204" departLane ="0" id="car321" route="route12" type="Car"/>
<vehicle depart ="204" departLane ="2" id="car322" route="route34" type="Car"/>
<vehicle depart ="205" departLane ="2" id="car323" route="route34" type="Car"/>
<vehicle depart ="205" departLane ="2" id="car324" route="route21" type="Car"/>
<vehicle depart ="206" departLane ="1" id="car325" route="route43" type="Car"/>
<vehicle depart ="206" departLane ="2" id="car326" route="route43" type="Car"/>
<vehicle depart ="208" departLane ="1" id="car327" route="route34" type="Car"/>
<vehicle depart ="209" departLane ="1" id="car328" route="route12" type="Car"/>
<vehicle depart ="211" departLane ="0" id="car329" route="route12" type="Car"/>
<vehicle depart ="211" departLane ="1" id="car330" route="route34" type="Car"/>
<vehicle depart ="212" departLane ="1" id="car331" route="route34" type="Car"/>
<vehicle depart ="212" departLane ="1" id="car332" route="route34" type="Car"/>
<vehicle depart ="212" departLane ="1" id="car333" route="route21" type="Car"/>
<vehicle depart ="212" departLane ="2" id="car334" route="route12" type="Car"/>
<vehicle depart ="212" departLane ="2" id="car335" route="route43" type="Car"/>
<vehicle depart ="213" departLane ="0" id="car336" route="route12" type="Car"/>
<vehicle depart ="213" departLane ="2" id="car337" route="route12" type="Car"/>
<vehicle depart ="214" departLane ="0" id="car338" route="route12" type="Car"/>
<vehicle depart ="215" departLane ="0" id="car339" route="route43" type="Car"/>
<vehicle depart ="215" departLane ="2" id="car340" route="route43" type="Car"/>
<vehicle depart ="216" departLane ="1" id="car341" route="route34" type="Car"/>
<vehicle depart ="217" departLane ="0" id="car342" route="route12" type="Car"/>
<vehicle depart ="217" departLane ="1" id="car343" route="route34" type="Car"/>
<vehicle depart ="218" departLane ="0" id="car344" route="route12" type="Car"/>
<vehicle depart ="218" departLane ="2" id="car345" route="route21" type="Car"/>
<vehicle depart ="219" departLane ="2" id="car346" route="route21" type="Car"/>
<vehicle depart ="220" departLane ="1" id="car347" route="route21" type="Car"/>
<vehicle depart ="220" departLane ="2" id="car348" route="route12" type="Car"/>
<vehicle depart ="221" departLane ="1" id="car349" route="route12" type="Car"/>
<vehicle depart ="222" departLane ="0" id="car350" route="route34" type="Car"/>
<vehicle depart ="222" departLane ="0" id="car351" route="route21" type="Car"/>
<vehicle depart ="222" departLane ="1" id="car352" route="route12" type="Car"/>
<vehicle depart ="223" departLane ="1" id="car353" route="route43" type="Car"/>
<vehicle depart ="224" departLane ="1" id="car354" route="route43" type="Car"/>
<vehicle depart ="226" departLane ="1" id="car355" route="route12" type="Car"/>
<vehicle depart ="227" departLane ="0" id="car356" route="route21" type="Car"/>
<vehicle depart ="227" departLane ="0" id="car357" route="route43" type="Car"/>
<vehicle depart ="227" departLane ="1" id="car358" route="route12" type="Car"/>
<vehicle depart ="227" departLane ="2" id="car359" route="route21" type="Car"/>
<vehicle depart ="228" departLane ="0" id="car360" route="route21" type="Car"/>
<vehicle depart ="229" departLane ="1" id="car361" route="route21" type="Car"/>
<vehicle depart ="230" departLane ="2" id="car362" route="route34" type="Car"/>
<vehicle depart ="231" departLane ="1" id="car363" route="route43" type="Car"/>
<vehicle depart ="231" departLane ="2" id="car364" route="route21" type="Car"/>
<vehicle depart ="232" departLane ="1" id="car365" route="route12" type="Car"/>
<vehicle depart ="233" departLane ="1" id="car366" route="route12" type="Car"/>