<?xml version="1.0" encoding="UTF-8"?>

<!-- generated on 05/27/19 09:58:21 by Eclipse SUMO netedit Version 1.1.0
<configuration xmlns:xsi="http://www.w3.org/2001/XMLSchema-instance" xsi:noNamespaceSchemaLocation="http://sumo.dlr.de/xsd/netconvertConfiguration.xsd">

    <input>
        <sumo-net-file value="C:\Users\morte\Desktop\AAUP6\Main\Experiments\ICAV\TrafficLightNet.net.xml"/>
    </input>

    <output>
        <output-file value="C:\Users\morte\Desktop\AAUP6\Main\Experiments\ICAV\TrafficLightNet.net.xml"/>
    </output>

    <processing>
        <geometry.max-grade.fix value="false"/>
        <offset.disable-normalization value="true"/>
        <lefthand value="false"/>
    </processing>

    <junctions>
        <no-turnarounds value="true"/>
        <junctions.corner-detail value="5"/>
        <junctions.limit-turn-speed value="5.5"/>
        <rectangular-lane-cut value="false"/>
    </junctions>

    <pedestrian>
        <walkingareas value="false"/>
    </pedestrian>

</configuration>
-->

<net version="1.1" junctionCornerDetail="5" limitTurnSpeed="5.50" xmlns:xsi="http://www.w3.org/2001/XMLSchema-instance" xsi:noNamespaceSchemaLocation="http://sumo.dlr.de/xsd/net_file.xsd">

    <location netOffset="500.00,500.00" convBoundary="0.00,0.00,1000.00,1000.00" origBoundary="-500.00,-500.00,500.00,500.00" projParameter="!"/>

    <type id="3L50" priority="3" numLanes="1" speed="16.00"/>
    <type id="out" priority="1" numLanes="1" speed="16.00"/>

    <edge id=":n1_0" function="internal">
        <lane id=":n1_0_0" index="0" speed="3.65" length="4.67" shape="501.60,1000.00 500.80,1001.20 500.00,1001.60 499.20,1001.20 498.40,1000.00"/>
    </edge>
    <edge id=":n2_0" function="internal">
        <lane id=":n2_0_0" index="0" speed="3.65" length="4.67" shape="498.40,0.00 499.20,-1.20 500.00,-1.60 500.80,-1.20 501.60,0.00"/>
    </edge>
    <edge id=":n3_0" function="internal">
        <lane id=":n3_0_0" index="0" speed="3.65" length="4.67" shape="1000.00,498.40 1001.20,499.20 1001.60,500.00 1001.20,500.80 1000.00,501.60"/>
    </edge>
    <edge id=":n4_0" function="internal">
        <lane id=":n4_0_0" index="0" speed="3.65" length="4.67" shape="0.00,501.60 -1.20,500.80 -1.60,500.00 -1.20,499.20 0.00,498.40"/>
    </edge>
    <edge id=":n5_0" function="internal">
        <lane id=":n5_0_0" index="0" speed="6.51" length="9.03" shape="492.00,513.60 491.65,511.15 490.60,509.40 488.85,508.35 486.40,508.00"/>
    </edge>
    <edge id=":n5_1" function="internal">
        <lane id=":n5_1_0" index="0" speed="16.00" length="27.20" shape="492.00,513.60 492.00,486.40"/>
        <lane id=":n5_1_1" index="1" speed="16.00" length="27.20" shape="495.20,513.60 495.20,486.40"/>
        <lane id=":n5_1_2" index="2" speed="16.00" length="27.20" shape="498.40,513.60 498.40,486.40"/>
    </edge>
    <edge id=":n5_4" function="internal">
        <lane id=":n5_4_0" index="0" speed="10.36" length="7.98" shape="498.40,513.60 499.35,506.95 500.00,505.87"/>
    </edge>
    <edge id=":n5_5" function="internal">
        <lane id=":n5_5_0" index="0" speed="3.65" length="2.34" shape="498.40,513.60 499.20,512.40 500.00,512.00"/>
    </edge>
    <edge id=":n5_24" function="internal">
        <lane id=":n5_24_0" index="0" speed="10.36" length="16.53" shape="500.00,505.87 502.20,502.20 506.95,499.35 513.60,498.40"/>
    </edge>
    <edge id=":n5_25" function="internal">
        <lane id=":n5_25_0" index="0" speed="3.65" length="2.34" shape="500.00,512.00 500.80,512.40 501.60,513.60"/>
    </edge>
    <edge id=":n5_6" function="internal">
        <lane id=":n5_6_0" index="0" speed="6.51" length="9.03" shape="513.60,508.00 511.15,508.35 509.40,509.40 508.35,511.15 508.00,513.60"/>
    </edge>
    <edge id=":n5_7" function="internal">
        <lane id=":n5_7_0" index="0" speed="16.00" length="27.20" shape="513.60,508.00 486.40,508.00"/>
        <lane id=":n5_7_1" index="1" speed="16.00" length="27.20" shape="513.60,504.80 486.40,504.80"/>
        <lane id=":n5_7_2" index="2" speed="16.00" length="27.20" shape="513.60,501.60 486.40,501.60"/>
    </edge>
    <edge id=":n5_10" function="internal">
        <lane id=":n5_10_0" index="0" speed="10.36" length="7.98" shape="513.60,501.60 506.95,500.65 505.87,500.00"/>
    </edge>
    <edge id=":n5_11" function="internal">
        <lane id=":n5_11_0" index="0" speed="3.65" length="2.34" shape="513.60,501.60 512.40,500.80 512.00,500.00"/>
    </edge>
    <edge id=":n5_26" function="internal">
        <lane id=":n5_26_0" index="0" speed="10.36" length="16.53" shape="505.87,500.00 502.20,497.80 499.35,493.05 498.40,486.40"/>
    </edge>
    <edge id=":n5_27" function="internal">
        <lane id=":n5_27_0" index="0" speed="3.65" length="2.34" shape="512.00,500.00 512.40,499.20 513.60,498.40"/>
    </edge>
    <edge id=":n5_12" function="internal">
        <lane id=":n5_12_0" index="0" speed="6.51" length="9.03" shape="508.00,486.40 508.35,488.85 509.40,490.60 511.15,491.65 513.60,492.00"/>
    </edge>
    <edge id=":n5_13" function="internal">
        <lane id=":n5_13_0" index="0" speed="16.00" length="27.20" shape="508.00,486.40 508.00,513.60"/>
        <lane id=":n5_13_1" index="1" speed="16.00" length="27.20" shape="504.80,486.40 504.80,513.60"/>
        <lane id=":n5_13_2" index="2" speed="16.00" length="27.20" shape="501.60,486.40 501.60,513.60"/>
    </edge>
    <edge id=":n5_16" function="internal">
        <lane id=":n5_16_0" index="0" speed="10.36" length="7.98" shape="501.60,486.40 500.65,493.05 500.00,494.13"/>
    </edge>
    <edge id=":n5_17" function="internal">
        <lane id=":n5_17_0" index="0" speed="3.65" length="2.34" shape="501.60,486.40 500.80,487.60 500.00,488.00"/>
    </edge>
    <edge id=":n5_28" function="internal">
        <lane id=":n5_28_0" index="0" speed="10.36" length="16.53" shape="500.00,494.13 497.80,497.80 493.05,500.65 486.40,501.60"/>
    </edge>
    <edge id=":n5_29" function="internal">
        <lane id=":n5_29_0" index="0" speed="3.65" length="2.34" shape="500.00,488.00 499.20,487.60 498.40,486.40"/>
    </edge>
    <edge id=":n5_18" function="internal">
        <lane id=":n5_18_0" index="0" speed="6.51" length="9.03" shape="486.40,492.00 488.85,491.65 490.60,490.60 491.65,488.85 492.00,486.40"/>
    </edge>
    <edge id=":n5_19" function="internal">
        <lane id=":n5_19_0" index="0" speed="16.00" length="27.20" shape="486.40,492.00 513.60,492.00"/>
        <lane id=":n5_19_1" index="1" speed="16.00" length="27.20" shape="486.40,495.20 513.60,495.20"/>
        <lane id=":n5_19_2" index="2" speed="16.00" length="27.20" shape="486.40,498.40 513.60,498.40"/>
    </edge>
    <edge id=":n5_22" function="internal">
        <lane id=":n5_22_0" index="0" speed="10.36" length="7.98" shape="486.40,498.40 493.05,499.35 494.13,500.00"/>
    </edge>
    <edge id=":n5_23" function="internal">
        <lane id=":n5_23_0" index="0" speed="3.65" length="2.34" shape="486.40,498.40 487.60,499.20 488.00,500.00"/>
    </edge>
    <edge id=":n5_30" function="internal">
        <lane id=":n5_30_0" index="0" speed="10.36" length="16.53" shape="494.13,500.00 497.80,502.20 500.65,506.95 501.60,513.60"/>
    </edge>
    <edge id=":n5_31" function="internal">
        <lane id=":n5_31_0" index="0" speed="3.65" length="2.34" shape="488.00,500.00 487.60,500.80 486.40,501.60"/>
    </edge>

    <edge id="Road1" from="n1" to="n5" priority="3" type="3L50">
        <lane id="Road1_0" index="0" speed="16.00" length="486.40" shape="492.00,1000.00 492.00,513.60"/>
        <lane id="Road1_1" index="1" speed="16.00" length="486.40" shape="495.20,1000.00 495.20,513.60"/>
        <lane id="Road1_2" index="2" speed="16.00" length="486.40" shape="498.40,1000.00 498.40,513.60"/>
    </edge>
    <edge id="Road1_out" from="n5" to="n1" priority="1" type="out">
        <lane id="Road1_out_0" index="0" speed="16.00" length="486.40" shape="508.00,513.60 508.00,1000.00"/>
        <lane id="Road1_out_1" index="1" speed="16.00" length="486.40" shape="504.80,513.60 504.80,1000.00"/>
        <lane id="Road1_out_2" index="2" speed="16.00" length="486.40" shape="501.60,513.60 501.60,1000.00"/>
    </edge>
    <edge id="Road2" from="n2" to="n5" priority="3" type="3L50">
        <lane id="Road2_0" index="0" speed="16.00" length="486.40" shape="508.00,0.00 508.00,486.40"/>
        <lane id="Road2_1" index="1" speed="16.00" length="486.40" shape="504.80,0.00 504.80,486.40"/>
        <lane id="Road2_2" index="2" speed="16.00" length="486.40" shape="501.60,0.00 501.60,486.40"/>
    </edge>
    <edge id="Road2_out" from="n5" to="n2" priority="1" type="out">
        <lane id="Road2_out_0" index="0" speed="16.00" length="486.40" shape="492.00,486.40 492.00,0.00"/>
        <lane id="Road2_out_1" index="1" speed="16.00" length="486.40" shape="495.20,486.40 495.20,0.00"/>
        <lane id="Road2_out_2" index="2" speed="16.00" length="486.40" shape="498.40,486.40 498.40,0.00"/>
    </edge>
    <edge id="Road3" from="n3" to="n5" priority="3" type="3L50">
        <lane id="Road3_0" index="0" speed="16.00" length="486.40" shape="1000.00,508.00 513.60,508.00"/>
        <lane id="Road3_1" index="1" speed="16.00" length="486.40" shape="1000.00,504.80 513.60,504.80"/>
        <lane id="Road3_2" index="2" speed="16.00" length="486.40" shape="1000.00,501.60 513.60,501.60"/>
    </edge>
    <edge id="Road3_out" from="n5" to="n3" priority="1" type="out">
        <lane id="Road3_out_0" index="0" speed="16.00" length="486.40" shape="513.60,492.00 1000.00,492.00"/>
        <lane id="Road3_out_1" index="1" speed="16.00" length="486.40" shape="513.60,495.20 1000.00,495.20"/>
        <lane id="Road3_out_2" index="2" speed="16.00" length="486.40" shape="513.60,498.40 1000.00,498.40"/>
    </edge>
    <edge id="Road4" from="n4" to="n5" priority="3" type="3L50">
        <lane id="Road4_0" index="0" speed="16.00" length="486.40" shape="0.00,492.00 486.40,492.00"/>
        <lane id="Road4_1" index="1" speed="16.00" length="486.40" shape="0.00,495.20 486.40,495.20"/>
        <lane id="Road4_2" index="2" speed="16.00" length="486.40" shape="0.00,498.40 486.40,498.40"/>
    </edge>
    <edge id="Road4_out" from="n5" to="n4" priority="1" type="out">
        <lane id="Road4_out_0" index="0" speed="16.00" length="486.40" shape="486.40,508.00 0.00,508.00"/>
        <lane id="Road4_out_1" index="1" speed="16.00" length="486.40" shape="486.40,504.80 0.00,504.80"/>
        <lane id="Road4_out_2" index="2" speed="16.00" length="486.40" shape="486.40,501.60 0.00,501.60"/>
    </edge>

    <tlLogic id="n5" type="static" programID="0" offset="0">
        <phase duration="42" state="GGGGggrrrrrrGGGGggrrrrrr"/>
        <phase duration="3"  state="yyyyyyrrrrrryyyyyyrrrrrr"/>
        <phase duration="42" state="rrrrrrGGGGggrrrrrrGGGGgg"/>
        <phase duration="3"  state="rrrrrryyyyyyrrrrrryyyyyy"/>
    </tlLogic>

    <junction id="n1" type="unregulated" x="500.00" y="1000.00" incLanes="Road1_out_0 Road1_out_1 Road1_out_2" intLanes=":n1_0_0" shape="500.00,1000.00 509.60,1000.00 500.00,1000.00"/>
    <junction id="n2" type="unregulated" x="500.00" y="0.00" incLanes="Road2_out_0 Road2_out_1 Road2_out_2" intLanes=":n2_0_0" shape="500.00,0.00 490.40,0.00 500.00,0.00"/>
    <junction id="n3" type="unregulated" x="1000.00" y="500.00" incLanes="Road3_out_0 Road3_out_1 Road3_out_2" intLanes=":n3_0_0" shape="1000.00,500.00 1000.00,490.40 1000.00,500.00"/>
    <junction id="n4" type="unregulated" x="0.00" y="500.00" incLanes="Road4_out_0 Road4_out_1 Road4_out_2" intLanes=":n4_0_0" shape="0.00,500.00 0.00,509.60 0.00,500.00"/>
    <junction id="n5" type="traffic_light" x="500.00" y="500.00" incLanes="Road1_0 Road1_1 Road1_2 Road3_0 Road3_1 Road3_2 Road2_0 Road2_1 Road2_2 Road4_0 Road4_1 Road4_2" intLanes=":n5_0_0 :n5_1_0 :n5_1_1 :n5_1_2 :n5_24_0 :n5_25_0 :n5_6_0 :n5_7_0 :n5_7_1 :n5_7_2 :n5_26_0 :n5_27_0 :n5_12_0 :n5_13_0 :n5_13_1 :n5_13_2 :n5_28_0 :n5_29_0 :n5_18_0 :n5_19_0 :n5_19_1 :n5_19_2 :n5_30_0 :n5_31_0" shape="490.40,513.60 509.60,513.60 510.04,511.38 510.60,510.60 511.38,510.04 512.38,509.71 513.60,509.60 513.60,490.40 511.38,489.96 510.60,489.40 510.04,488.62 509.71,487.62 509.60,486.40 490.40,486.40 489.96,488.62 489.40,489.40 488.62,489.96 487.62,490.29 486.40,490.40 486.40,509.60 488.62,510.04 489.40,510.60 489.96,511.38 490.29,512.38">
        <request index="0"  response="000000000000000000000000" foes="000000000000001110000000" cont="0"/>
        <request index="1"  response="010000000000010000000000" foes="011111110000011110000000" cont="0"/>
        <request index="2"  response="010000000000010000000000" foes="011111110000011110000000" cont="0"/>
        <request index="3"  response="010000000000010000000000" foes="011111110000011110000000" cont="0"/>
        <request index="4"  response="010000001110010000000000" foes="011110001110111110000000" cont="1"/>
        <request index="5"  response="010000001110000000000000" foes="010000001110000000000000" cont="1"/>
        <request index="6"  response="000000001110000000000000" foes="000000001110000000000000" cont="0"/>
        <request index="7"  response="000000011110000000011111" foes="110000011110000000011111" cont="0"/>
        <request index="8"  response="000000011110000000011111" foes="110000011110000000011111" cont="0"/>
        <request index="9"  response="000000011110000000011111" foes="110000011110000000011111" cont="0"/>
        <request index="10" response="001110011110000000011110" foes="001110111110000000011110" cont="1"/>
        <request index="11" response="001110000000000000010000" foes="001110000000000000010000" cont="1"/>
        <request index="12" response="000000000000000000000000" foes="001110000000000000000000" cont="0"/>
        <request index="13" response="010000000000010000000000" foes="011110000000011111110000" cont="0"/>
        <request index="14" response="010000000000010000000000" foes="011110000000011111110000" cont="0"/>
        <request index="15" response="010000000000010000000000" foes="011110000000011111110000" cont="0"/>
        <request index="16" response="010000000000010000001110" foes="111110000000011110001110" cont="1"/>
        <request index="17" response="000000000000010000001110" foes="000000000000010000001110" cont="1"/>
        <request index="18" response="000000000000000000001110" foes="000000000000000000001110" cont="0"/>
        <request index="19" response="000000011111000000011110" foes="000000011111110000011110" cont="0"/>
        <request index="20" response="000000011111000000011110" foes="000000011111110000011110" cont="0"/>
        <request index="21" response="000000011111000000011110" foes="000000011111110000011110" cont="0"/>
        <request index="22" response="000000011110001110011110" foes="000000011110001110111110" cont="1"/>
        <request index="23" response="000000010000001110000000" foes="000000010000001110000000" cont="1"/>
    </junction>

    <junction id=":n5_24_0" type="internal" x="500.00" y="505.87" incLanes=":n5_4_0 Road2_0 Road2_1 Road2_2" intLanes=":n5_7_0 :n5_7_1 :n5_7_2 :n5_10_0 :n5_11_0 :n5_12_0 :n5_13_0 :n5_13_1 :n5_13_2 :n5_19_0 :n5_19_1 :n5_19_2 :n5_22_0"/>
    <junction id=":n5_25_0" type="internal" x="500.00" y="512.00" incLanes=":n5_5_0 Road2_0 Road2_1 Road2_2 Road3_0 Road4_2" intLanes=":n5_6_0 :n5_13_0 :n5_13_1 :n5_13_2 :n5_22_0"/>
    <junction id=":n5_26_0" type="internal" x="505.87" y="500.00" incLanes=":n5_10_0 Road4_0 Road4_1 Road4_2" intLanes=":n5_1_0 :n5_1_1 :n5_1_2 :n5_4_0 :n5_13_0 :n5_13_1 :n5_13_2 :n5_16_0 :n5_17_0 :n5_18_0 :n5_19_0 :n5_19_1 :n5_19_2"/>
    <junction id=":n5_27_0" type="internal" x="512.00" y="500.00" incLanes=":n5_11_0 Road1_2 Road2_0 Road4_0 Road4_1 Road4_2" intLanes=":n5_4_0 :n5_12_0 :n5_19_0 :n5_19_1 :n5_19_2"/>
    <junction id=":n5_28_0" type="internal" x="500.00" y="494.13" incLanes=":n5_16_0 Road1_0 Road1_1 Road1_2" intLanes=":n5_0_0 :n5_1_0 :n5_1_1 :n5_1_2 :n5_7_0 :n5_7_1 :n5_7_2 :n5_10_0 :n5_19_0 :n5_19_1 :n5_19_2 :n5_22_0 :n5_23_0"/>
    <junction id=":n5_29_0" type="internal" x="500.00" y="488.00" incLanes=":n5_17_0 Road1_0 Road1_1 Road1_2 Road3_2 Road4_0" intLanes=":n5_1_0 :n5_1_1 :n5_1_2 :n5_10_0 :n5_18_0"/>
    <junction id=":n5_30_0" type="internal" x="494.13" y="500.00" incLanes=":n5_22_0 Road3_0 Road3_1 Road3_2" intLanes=":n5_1_0 :n5_1_1 :n5_1_2 :n5_4_0 :n5_5_0 :n5_6_0 :n5_7_0 :n5_7_1 :n5_7_2 :n5_13_0 :n5_13_1 :n5_13_2 :n5_16_0"/>
    <junction id=":n5_31_0" type="internal" x="488.00" y="500.00" incLanes=":n5_23_0 Road1_0 Road2_2 Road3_0 Road3_1 Road3_2" intLanes=":n5_0_0 :n5_7_0 :n5_7_1 :n5_7_2 :n5_16_0"/>

    <connection from="Road1" to="Road4_out" fromLane="0" toLane="0" via=":n5_0_0" tl="n5" linkIndex="0" dir="r" state="O"/>
    <connection from="Road1" to="Road2_out" fromLane="0" toLane="0" via=":n5_1_0" tl="n5" linkIndex="1" dir="s" state="O"/>
    <connection from="Road1" to="Road2_out" fromLane="1" toLane="1" via=":n5_1_1" tl="n5" linkIndex="2" dir="s" state="O"/>
    <connection from="Road1" to="Road2_out" fromLane="2" toLane="2" via=":n5_1_2" tl="n5" linkIndex="3" dir="s" state="O"/>
    <connection from="Road1" to="Road3_out" fromLane="2" toLane="2" via=":n5_4_0" tl="n5" linkIndex="4" dir="l" state="o"/>
    <connection from="Road1" to="Road1_out" fromLane="2" toLane="2" via=":n5_5_0" tl="n5" linkIndex="5" dir="t" state="o"/>
    <connection from="Road1_out" to="Road1" fromLane="2" toLane="2" via=":n1_0_0" dir="t" state="M"/>
    <connection from="Road2" to="Road3_out" fromLane="0" toLane="0" via=":n5_12_0" tl="n5" linkIndex="12" dir="r" state="O"/>
    <connection from="Road2" to="Road1_out" fromLane="0" toLane="0" via=":n5_13_0" tl="n5" linkIndex="13" dir="s" state="O"/>
    <connection from="Road2" to="Road1_out" fromLane="1" toLane="1" via=":n5_13_1" tl="n5" linkIndex="14" dir="s" state="O"/>
    <connection from="Road2" to="Road1_out" fromLane="2" toLane="2" via=":n5_13_2" tl="n5" linkIndex="15" dir="s" state="O"/>
    <connection from="Road2" to="Road4_out" fromLane="2" toLane="2" via=":n5_16_0" tl="n5" linkIndex="16" dir="l" state="o"/>
    <connection from="Road2" to="Road2_out" fromLane="2" toLane="2" via=":n5_17_0" tl="n5" linkIndex="17" dir="t" state="o"/>
    <connection from="Road2_out" to="Road2" fromLane="2" toLane="2" via=":n2_0_0" dir="t" state="M"/>
    <connection from="Road3" to="Road1_out" fromLane="0" toLane="0" via=":n5_6_0" tl="n5" linkIndex="6" dir="r" state="o"/>
    <connection from="Road3" to="Road4_out" fromLane="0" toLane="0" via=":n5_7_0" tl="n5" linkIndex="7" dir="s" state="o"/>
    <connection from="Road3" to="Road4_out" fromLane="1" toLane="1" via=":n5_7_1" tl="n5" linkIndex="8" dir="s" state="o"/>
    <connection from="Road3" to="Road4_out" fromLane="2" toLane="2" via=":n5_7_2" tl="n5" linkIndex="9" dir="s" state="o"/>
    <connection from="Road3" to="Road2_out" fromLane="2" toLane="2" via=":n5_10_0" tl="n5" linkIndex="10" dir="l" state="o"/>
    <connection from="Road3" to="Road3_out" fromLane="2" toLane="2" via=":n5_11_0" tl="n5" linkIndex="11" dir="t" state="o"/>
    <connection from="Road3_out" to="Road3" fromLane="2" toLane="2" via=":n3_0_0" dir="t" state="M"/>
    <connection from="Road4" to="Road2_out" fromLane="0" toLane="0" via=":n5_18_0" tl="n5" linkIndex="18" dir="r" state="o"/>
    <connection from="Road4" to="Road3_out" fromLane="0" toLane="0" via=":n5_19_0" tl="n5" linkIndex="19" dir="s" state="o"/>
    <connection from="Road4" to="Road3_out" fromLane="1" toLane="1" via=":n5_19_1" tl="n5" linkIndex="20" dir="s" state="o"/>
    <connection from="Road4" to="Road3_out" fromLane="2" toLane="2" via=":n5_19_2" tl="n5" linkIndex="21" dir="s" state="o"/>
    <connection from="Road4" to="Road1_out" fromLane="2" toLane="2" via=":n5_22_0" tl="n5" linkIndex="22" dir="l" state="o"/>
    <connection from="Road4" to="Road4_out" fromLane="2" toLane="2" via=":n5_23_0" tl="n5" linkIndex="23" dir="t" state="o"/>
    <connection from="Road4_out" to="Road4" fromLane="2" toLane="2" via=":n4_0_0" dir="t" state="M"/>

    <connection from=":n1_0" to="Road1" fromLane="0" toLane="2" dir="t" state="M"/>
    <connection from=":n2_0" to="Road2" fromLane="0" toLane="2" dir="t" state="M"/>
    <connection from=":n3_0" to="Road3" fromLane="0" toLane="2" dir="t" state="M"/>
    <connection from=":n4_0" to="Road4" fromLane="0" toLane="2" dir="t" state="M"/>
    <connection from=":n5_0" to="Road4_out" fromLane="0" toLane="0" dir="r" state="M"/>
    <connection from=":n5_1" to="Road2_out" fromLane="0" toLane="0" dir="s" state="M"/>
    <connection from=":n5_1" to="Road2_out" fromLane="1" toLane="1" dir="s" state="M"/>
    <connection from=":n5_1" to="Road2_out" fromLane="2" toLane="2" dir="s" state="M"/>
    <connection from=":n5_4" to="Road3_out" fromLane="0" toLane="2" via=":n5_24_0" dir="l" state="m"/>
    <connection from=":n5_24" to="Road3_out" fromLane="0" toLane="2" dir="l" state="M"/>
    <connection from=":n5_5" to="Road1_out" fromLane="0" toLane="2" via=":n5_25_0" dir="t" state="m"/>
    <connection from=":n5_25" to="Road1_out" fromLane="0" toLane="2" dir="t" state="M"/>
    <connection from=":n5_6" to="Road1_out" fromLane="0" toLane="0" dir="r" state="M"/>
    <connection from=":n5_7" to="Road4_out" fromLane="0" toLane="0" dir="s" state="M"/>
    <connection from=":n5_7" to="Road4_out" fromLane="1" toLane="1" dir="s" state="M"/>
    <connection from=":n5_7" to="Road4_out" fromLane="2" toLane="2" dir="s" state="M"/>
    <connection from=":n5_10" to="Road2_out" fromLane="0" toLane="2" via=":n5_26_0" dir="l" state="m"/>
    <connection from=":n5_26" to="Road2_out" fromLane="0" toLane="2" dir="l" state="M"/>
    <connection from=":n5_11" to="Road3_out" fromLane="0" toLane="2" via=":n5_27_0" dir="t" state="m"/>
    <connection from=":n5_27" to="Road3_out" fromLane="0" toLane="2" dir="t" state="M"/>
    <connection from=":n5_12" to="Road3_out" fromLane="0" toLane="0" dir="r" state="M"/>
    <connection from=":n5_13" to="Road1_out" fromLane="0" toLane="0" dir="s" state="M"/>
    <connection from=":n5_13" to="Road1_out" fromLane="1" toLane="1" dir="s" state="M"/>
    <connection from=":n5_13" to="Road1_out" fromLane="2" toLane="2" dir="s" state="M"/>
    <connection from=":n5_16" to="Road4_out" fromLane="0" toLane="2" via=":n5_28_0" dir="l" state="m"/>
    <connection from=":n5_28" to="Road4_out" fromLane="0" toLane="2" dir="l" state="M"/>
    <connection from=":n5_17" to="Road2_out" fromLane="0" toLane="2" via=":n5_29_0" dir="t" state="m"/>
    <connection from=":n5_29" to="Road2_out" fromLane="0" toLane="2" dir="t" state="M"/>
    <connection from=":n5_18" to="Road2_out" fromLane="0" toLane="0" dir="r" state="M"/>
    <connection from=":n5_19" to="Road3_out" fromLane="0" toLane="0" dir="s" state="M"/>
    <connection from=":n5_19" to="Road3_out" fromLane="1" toLane="1" dir="s" state="M"/>
    <connection from=":n5_19" to="Road3_out" fromLane="2" toLane="2" dir="s" state="M"/>
    <connection from=":n5_22" to="Road1_out" fromLane="0" toLane="2" via=":n5_30_0" dir="l" state="m"/>
    <connection from=":n5_30" to="Road1_out" fromLane="0" toLane="2" dir="l" state="M"/>
    <connection from=":n5_23" to="Road4_out" fromLane="0" toLane="2" via=":n5_31_0" dir="t" state="m"/>
    <connection from=":n5_31" to="Road4_out" fromLane="0" toLane="2" dir="t" state="M"/>

</net>
